/*---------------------------------------------------------------------------*\
| =========                 |                                                 |
| \\      /  F ield         | OpenFOAM: The Open Source CFD Toolbox           |
|  \\    /   O peration     | Version:  v1706                                 |
|   \\  /    A nd           | Web:      www.OpenFOAM.com                      |
|    \\/     M anipulation  |                                                 |
\*---------------------------------------------------------------------------*/
Build  : v1706
Arch   : "LSB;label=32;scalar=64"
Exec   : hy2MhdFoam -parallel
Date   : Jan 16 2019
Time   : 14:16:42
Host   : "Galileo"
PID    : 24976
Case   : /home/vincent/OpenFOAM/vincent-v1706/mhdIoffe/run/hyStrath/hy2MhdFoam/NASA_MSL_forebody_NR
nProcs : 4
Slaves : 
3
(
"Galileo.24977"
"Galileo.24978"
"Galileo.24979"
)

Pstream initialized with:
    floatTransfer      : 0
    nProcsSimpleSum    : 0
    commsType          : nonBlocking
    polling iterations : 0
sigFpe : Enabling floating point exception trapping (FOAM_SIGFPE).
fileModificationChecking : Monitoring run-time modified files using timeStampMaster (fileModificationSkew 10)
allowSystemOperations : Allowing user-supplied system call operations

// * * * * * * * * * * * * * * * * * * * * * * * * * * * * * * * * * * * * * //
Create time

Create mesh for time = 0

Creating reaction model

Selecting hTC model laminar2<rho2ChemistryHTC>
Selecting chemistry type 
{
    chemistrySolver Euler2Implicit;
    chemistryThermo rho2;
}

Selecting thermodynamics package 
{
    type            heRho2Thermo;
    mixture         reacting2Mixture;
    transport       powerLawEucken;
    thermo          decoupledEnergyModes;
    energy          sensible2InternalEnergy;
    equationOfState perfect2Gas;
    specie          advancedSpecie;
}

Selecting chemistry2Reader foam2ChemistryReader
chemistry2Model: Number of species = 2 and reactions = 0
    using integrated reaction rate

Reading thermophysical properties

Reading field U

Creating turbulence model

Selecting turbulence model type laminar
Selecting laminar stress model Stokes

Loading the transport mixing rule:	Wilke

Loading the rarefaction parameters library

Loading the multispecies transport model:	noSpeciesDiffusion

Loading the V-T relaxation time model:	LandauTellerVT

Mhd model: noMHD
Conductivity model: Bush
Creating MHD model

Selector 2: Selecting mhdModel noMHD
Selector 2 returning
Constructor 1 was used
conductivity model initialising.
Looking for conductivityModel name 
Selecting conductivityModel Bush
Creating Bush conductivity model
conductivity model initialised.
No finite volume options present

fluxScheme: Kurganov
Mean and max Courant Numbers = 5.829438424e-06 0.0003287946449
forces forces:
    Not including porosity effects
forces forceCoeffs:
    Not including porosity effects
forceCoeffs forceCoeffs:
    Not including porosity effects

wallShearStress wallShearStress:
    processing wall patches: 
        object


Starting time loop

Mean and max Courant Numbers = 5.829438424e-06 0.0003287946449
deltaT = 1.200048002e-10
Time = 1.200048002e-10

diagonal:  Solving for rho, Initial residual = 0, Final residual = 0, No Iterations 0
diagonal:  Solving for rhoUx, Initial residual = 0, Final residual = 0, No Iterations 0
diagonal:  Solving for rhoUy, Initial residual = 0, Final residual = 0, No Iterations 0
diagonal:  Solving for rhoUz, Initial residual = 0, Final residual = 0, No Iterations 0
smoothSolver:  Solving for Ux, Initial residual = 4.782171588e-05, Final residual = 2.556644289e-17, No Iterations 2
smoothSolver:  Solving for Uy, Initial residual = 1, Final residual = 2.564069973e-16, No Iterations 2
smoothSolver:  Solving for Uz, Initial residual = 6.67530475e-05, Final residual = 3.655040464e-17, No Iterations 2
diagonal:  Solving for rhoEv, Initial residual = 0, Final residual = 0, No Iterations 0
diagonal:  Solving for rhoE, Initial residual = 0, Final residual = 0, No Iterations 0
Q_mag is working. max(Q_mag) = max(Rp) [1 -1 -3 0 0 0 0] 0
smoothSolver:  Solving for hevel, Initial residual = 0.9991143972, Final residual = 9.986774768e-08, No Iterations 2
Q_mag is working
smoothSolver:  Solving for e, Initial residual = 1.655863859e-07, Final residual = 1.730815108e-13, No Iterations 2
Phase no 1.0  ExecutionTime = 1.65 s  ClockTime = 1 s  Iteration no 1 (1.65 s)

Mean and max Courant Numbers = 6.995990322e-06 0.0003945693567
deltaT = 1.440126739e-10
Time = 2.640174741e-10

diagonal:  Solving for rho, Initial residual = 0, Final residual = 0, No Iterations 0
diagonal:  Solving for rhoUx, Initial residual = 0, Final residual = 0, No Iterations 0
diagonal:  Solving for rhoUy, Initial residual = 0, Final residual = 0, No Iterations 0
diagonal:  Solving for rhoUz, Initial residual = 0, Final residual = 0, No Iterations 0
smoothSolver:  Solving for Ux, Initial residual = 2.608159478e-05, Final residual = 2.533630128e-17, No Iterations 2
smoothSolver:  Solving for Uy, Initial residual = 0.2957758376, Final residual = 1.097950187e-16, No Iterations 2
smoothSolver:  Solving for Uz, Initial residual = 3.846687345e-05, Final residual = 3.200439376e-17, No Iterations 2
diagonal:  Solving for rhoEv, Initial residual = 0, Final residual = 0, No Iterations 0
diagonal:  Solving for rhoE, Initial residual = 0, Final residual = 0, No Iterations 0
Q_mag is working. max(Q_mag) = max(Rp) [1 -1 -3 0 0 0 0] 0
smoothSolver:  Solving for hevel, Initial residual = 0.09175518093, Final residual = 7.650557855e-09, No Iterations 2
Q_mag is working
smoothSolver:  Solving for e, Initial residual = 1.04614091e-07, Final residual = 7.82278857e-14, No Iterations 2
Phase no 1.0  ExecutionTime = 2.41 s  ClockTime = 2 s  Iteration no 2 (0.76 s)

Mean and max Courant Numbers = 8.396141663e-06 0.00047350596
deltaT = 1.728152087e-10
Time = 4.368326829e-10

diagonal:  Solving for rho, Initial residual = 0, Final residual = 0, No Iterations 0
diagonal:  Solving for rhoUx, Initial residual = 0, Final residual = 0, No Iterations 0
diagonal:  Solving for rhoUy, Initial residual = 0, Final residual = 0, No Iterations 0
diagonal:  Solving for rhoUz, Initial residual = 0, Final residual = 0, No Iterations 0
smoothSolver:  Solving for Ux, Initial residual = 1.891373807e-05, Final residual = 2.420606419e-17, No Iterations 2
smoothSolver:  Solving for Uy, Initial residual = 0.1541887975, Final residual = 8.18118571e-17, No Iterations 2
smoothSolver:  Solving for Uz, Initial residual = 2.721093485e-05, Final residual = 3.629014165e-17, No Iterations 2
diagonal:  Solving for rhoEv, Initial residual = 0, Final residual = 0, No Iterations 0
diagonal:  Solving for rhoE, Initial residual = 0, Final residual = 0, No Iterations 0
Q_mag is working. max(Q_mag) = max(Rp) [1 -1 -3 0 0 0 0] 0
smoothSolver:  Solving for hevel, Initial residual = 0.0522660919, Final residual = 3.635635255e-09, No Iterations 2
Q_mag is working
smoothSolver:  Solving for e, Initial residual = 8.846843719e-08, Final residual = 4.699737992e-14, No Iterations 2
Phase no 1.0  ExecutionTime = 3.18 s  ClockTime = 3 s  Iteration no 3 (0.77 s)

Mean and max Courant Numbers = 1.007615666e-05 0.0005682071519
deltaT = 2.073782505e-10
Time = 6.442109334e-10

diagonal:  Solving for rho, Initial residual = 0, Final residual = 0, No Iterations 0
diagonal:  Solving for rhoUx, Initial residual = 0, Final residual = 0, No Iterations 0
diagonal:  Solving for rhoUy, Initial residual = 0, Final residual = 0, No Iterations 0
diagonal:  Solving for rhoUz, Initial residual = 0, Final residual = 0, No Iterations 0
smoothSolver:  Solving for Ux, Initial residual = 1.538801556e-05, Final residual = 2.485736505e-17, No Iterations 2
smoothSolver:  Solving for Uy, Initial residual = 0.07229627369, Final residual = 6.229620903e-17, No Iterations 2
smoothSolver:  Solving for Uz, Initial residual = 2.546693359e-05, Final residual = 3.663912185e-17, No Iterations 2
diagonal:  Solving for rhoEv, Initial residual = 0, Final residual = 0, No Iterations 0
diagonal:  Solving for rhoE, Initial residual = 0, Final residual = 0, No Iterations 0
Q_mag is working. max(Q_mag) = max(Rp) [1 -1 -3 0 0 0 0] 0
smoothSolver:  Solving for hevel, Initial residual = 0.03846910447, Final residual = 2.240215063e-09, No Iterations 2
Q_mag is working
smoothSolver:  Solving for e, Initial residual = 8.43559505e-08, Final residual = 3.173448629e-14, No Iterations 2
Phase no 1.0  ExecutionTime = 3.94 s  ClockTime = 3 s  Iteration no 4 (0.76 s)

Mean and max Courant Numbers = 1.20925113e-05 0.0006818485823
deltaT = 2.48843573e-10
Time = 8.930545063e-10

diagonal:  Solving for rho, Initial residual = 0, Final residual = 0, No Iterations 0
diagonal:  Solving for rhoUx, Initial residual = 0, Final residual = 0, No Iterations 0
diagonal:  Solving for rhoUy, Initial residual = 0, Final residual = 0, No Iterations 0
diagonal:  Solving for rhoUz, Initial residual = 0, Final residual = 0, No Iterations 0
smoothSolver:  Solving for Ux, Initial residual = 1.331747697e-05, Final residual = 2.431982248e-17, No Iterations 2
smoothSolver:  Solving for Uy, Initial residual = 0.04119689003, Final residual = 6.176920133e-17, No Iterations 2
smoothSolver:  Solving for Uz, Initial residual = 2.122238612e-05, Final residual = 3.625150882e-17, No Iterations 2
diagonal:  Solving for rhoEv, Initial residual = 0, Final residual = 0, No Iterations 0
diagonal:  Solving for rhoE, Initial residual = 0, Final residual = 0, No Iterations 0
Q_mag is working. max(Q_mag) = max(Rp) [1 -1 -3 0 0 0 0] 0
smoothSolver:  Solving for hevel, Initial residual = 0.03153134452, Final residual = 1.539109999e-09, No Iterations 2
Q_mag is working
smoothSolver:  Solving for e, Initial residual = 8.595225379e-08, Final residual = 2.284691839e-14, No Iterations 2
Phase no 1.0  ExecutionTime = 4.8 s  ClockTime = 4 s  Iteration no 5 (0.86 s)

Mean and max Courant Numbers = 1.451201288e-05 0.0008181843422
deltaT = 2.985974135e-10
Time = 1.19165192e-09

diagonal:  Solving for rho, Initial residual = 0, Final residual = 0, No Iterations 0
diagonal:  Solving for rhoUx, Initial residual = 0, Final residual = 0, No Iterations 0
diagonal:  Solving for rhoUy, Initial residual = 0, Final residual = 0, No Iterations 0
diagonal:  Solving for rhoUz, Initial residual = 0, Final residual = 0, No Iterations 0
smoothSolver:  Solving for Ux, Initial residual = 1.197353162e-05, Final residual = 3.063934865e-17, No Iterations 2
smoothSolver:  Solving for Uy, Initial residual = 0.02620591919, Final residual = 5.706228659e-17, No Iterations 2
smoothSolver:  Solving for Uz, Initial residual = 2.005508516e-05, Final residual = 3.52256476e-17, No Iterations 2
diagonal:  Solving for rhoEv, Initial residual = 0, Final residual = 0, No Iterations 0
diagonal:  Solving for rhoE, Initial residual = 0, Final residual = 0, No Iterations 0
Q_mag is working. max(Q_mag) = max(Rp) [1 -1 -3 0 0 0 0] 0
smoothSolver:  Solving for hevel, Initial residual = 0.02741142737, Final residual = 1.10408867e-09, No Iterations 2
Q_mag is working
smoothSolver:  Solving for e, Initial residual = 9.13633689e-08, Final residual = 1.715472067e-14, No Iterations 2
Phase no 1.0  ExecutionTime = 5.77 s  ClockTime = 5 s  Iteration no 6 (0.97 s)

Mean and max Courant Numbers = 1.741582763e-05 0.0009817723054
deltaT = 3.582526356e-10
Time = 1.549904555e-09

diagonal:  Solving for rho, Initial residual = 0, Final residual = 0, No Iterations 0
diagonal:  Solving for rhoUx, Initial residual = 0, Final residual = 0, No Iterations 0
diagonal:  Solving for rhoUy, Initial residual = 0, Final residual = 0, No Iterations 0
diagonal:  Solving for rhoUz, Initial residual = 0, Final residual = 0, No Iterations 0
smoothSolver:  Solving for Ux, Initial residual = 1.104244821e-05, Final residual = 2.669083467e-17, No Iterations 2
smoothSolver:  Solving for Uy, Initial residual = 0.01785548409, Final residual = 6.003493575e-17, No Iterations 2
smoothSolver:  Solving for Uz, Initial residual = 1.919600106e-05, Final residual = 3.828557328e-17, No Iterations 2
diagonal:  Solving for rhoEv, Initial residual = 0, Final residual = 0, No Iterations 0
diagonal:  Solving for rhoE, Initial residual = 0, Final residual = 0, No Iterations 0
Q_mag is working. max(Q_mag) = max(Rp) [1 -1 -3 0 0 0 0] 0
smoothSolver:  Solving for hevel, Initial residual = 0.02471673416, Final residual = 8.298314724e-10, No Iterations 2
Q_mag is working
smoothSolver:  Solving for e, Initial residual = 9.999787667e-08, Final residual = 1.320858811e-14, No Iterations 2
Phase no 1.0  ExecutionTime = 6.54 s  ClockTime = 6 s  Iteration no 7 (0.77 s)

Mean and max Courant Numbers = 2.089848297e-05 0.001177915481
deltaT = 4.298106308e-10
Time = 1.979715186e-09

diagonal:  Solving for rho, Initial residual = 0, Final residual = 0, No Iterations 0
diagonal:  Solving for rhoUx, Initial residual = 0, Final residual = 0, No Iterations 0
diagonal:  Solving for rhoUy, Initial residual = 0, Final residual = 0, No Iterations 0
diagonal:  Solving for rhoUz, Initial residual = 0, Final residual = 0, No Iterations 0
smoothSolver:  Solving for Ux, Initial residual = 1.036884452e-05, Final residual = 2.545404707e-17, No Iterations 2
smoothSolver:  Solving for Uy, Initial residual = 0.01274333726, Final residual = 5.73211476e-17, No Iterations 2
smoothSolver:  Solving for Uz, Initial residual = 1.773462361e-05, Final residual = 3.774359563e-17, No Iterations 2
diagonal:  Solving for rhoEv, Initial residual = 0, Final residual = 0, No Iterations 0
diagonal:  Solving for rhoE, Initial residual = 0, Final residual = 0, No Iterations 0
Q_mag is working. max(Q_mag) = max(Rp) [1 -1 -3 0 0 0 0] 0
smoothSolver:  Solving for hevel, Initial residual = 0.02284432641, Final residual = 6.404154779e-10, No Iterations 2
Q_mag is working
smoothSolver:  Solving for e, Initial residual = 1.118343454e-07, Final residual = 1.045273487e-14, No Iterations 2
Phase no 1.0  ExecutionTime = 7.33 s  ClockTime = 7 s  Iteration no 8 (0.79 s)

Mean and max Courant Numbers = 2.507737079e-05 0.001413194338
deltaT = 5.15772757e-10
Time = 2.495487943e-09

diagonal:  Solving for rho, Initial residual = 0, Final residual = 0, No Iterations 0
diagonal:  Solving for rhoUx, Initial residual = 0, Final residual = 0, No Iterations 0
diagonal:  Solving for rhoUy, Initial residual = 0, Final residual = 0, No Iterations 0
diagonal:  Solving for rhoUz, Initial residual = 0, Final residual = 0, No Iterations 0
smoothSolver:  Solving for Ux, Initial residual = 9.86755353e-06, Final residual = 2.506946292e-17, No Iterations 2
smoothSolver:  Solving for Uy, Initial residual = 0.009399616706, Final residual = 6.098681856e-17, No Iterations 2
smoothSolver:  Solving for Uz, Initial residual = 1.712230048e-05, Final residual = 3.709756368e-17, No Iterations 2
diagonal:  Solving for rhoEv, Initial residual = 0, Final residual = 0, No Iterations 0
diagonal:  Solving for rhoE, Initial residual = 0, Final residual = 0, No Iterations 0
Q_mag is working. max(Q_mag) = max(Rp) [1 -1 -3 0 0 0 0] 0
smoothSolver:  Solving for hevel, Initial residual = 0.02149241768, Final residual = 5.01239927e-10, No Iterations 2
Q_mag is working
smoothSolver:  Solving for e, Initial residual = 1.27187798e-07, Final residual = 8.316634111e-15, No Iterations 2
Phase no 1.0  ExecutionTime = 8.1 s  ClockTime = 8 s  Iteration no 9 (0.77 s)

Mean and max Courant Numbers = 3.009933679e-05 0.001695833205
deltaT = 6.187993251e-10
Time = 3.114287268e-09

diagonal:  Solving for rho, Initial residual = 0, Final residual = 0, No Iterations 0
diagonal:  Solving for rhoUx, Initial residual = 0, Final residual = 0, No Iterations 0
diagonal:  Solving for rhoUy, Initial residual = 0, Final residual = 0, No Iterations 0
diagonal:  Solving for rhoUz, Initial residual = 0, Final residual = 0, No Iterations 0
smoothSolver:  Solving for Ux, Initial residual = 9.482422017e-06, Final residual = 2.811735788e-17, No Iterations 2
smoothSolver:  Solving for Uy, Initial residual = 0.007100214824, Final residual = 7.022098499e-17, No Iterations 2
smoothSolver:  Solving for Uz, Initial residual = 1.754630014e-05, Final residual = 3.686746389e-17, No Iterations 2
diagonal:  Solving for rhoEv, Initial residual = 0, Final residual = 0, No Iterations 0
diagonal:  Solving for rhoE, Initial residual = 0, Final residual = 0, No Iterations 0
Q_mag is working. max(Q_mag) = max(Rp) [1 -1 -3 0 0 0 0] 0
smoothSolver:  Solving for hevel, Initial residual = 0.02047876759, Final residual = 4.006979365e-10, No Iterations 2
Q_mag is working
smoothSolver:  Solving for e, Initial residual = 1.465352096e-07, Final residual = 6.643098666e-15, No Iterations 2
Phase no 1.0  ExecutionTime = 8.87 s  ClockTime = 8 s  Iteration no 10 (0.77 s)

Mean and max Courant Numbers = 3.612089205e-05 0.002034579044
deltaT = 7.422827347e-10
Time = 3.856570003e-09

diagonal:  Solving for rho, Initial residual = 0, Final residual = 0, No Iterations 0
diagonal:  Solving for rhoUx, Initial residual = 0, Final residual = 0, No Iterations 0
diagonal:  Solving for rhoUy, Initial residual = 0, Final residual = 0, No Iterations 0
diagonal:  Solving for rhoUz, Initial residual = 0, Final residual = 0, No Iterations 0
smoothSolver:  Solving for Ux, Initial residual = 9.18085521e-06, Final residual = 2.751119808e-17, No Iterations 2
smoothSolver:  Solving for Uy, Initial residual = 0.005459745617, Final residual = 6.799486441e-17, No Iterations 2
smoothSolver:  Solving for Uz, Initial residual = 1.714554515e-05, Final residual = 3.776908156e-17, No Iterations 2
diagonal:  Solving for rhoEv, Initial residual = 0, Final residual = 0, No Iterations 0
diagonal:  Solving for rhoE, Initial residual = 0, Final residual = 0, No Iterations 0
Q_mag is working. max(Q_mag) = max(Rp) [1 -1 -3 0 0 0 0] 0
smoothSolver:  Solving for hevel, Initial residual = 0.01970215596, Final residual = 3.201248429e-10, No Iterations 2
Q_mag is working
smoothSolver:  Solving for e, Initial residual = 1.706243751e-07, Final residual = 5.409566271e-15, No Iterations 2
Phase no 1.0  ExecutionTime = 9.63 s  ClockTime = 9 s  Iteration no 11 (0.76 s)

Mean and max Courant Numbers = 4.334180909e-05 0.002440585882
deltaT = 8.910048569e-10
Time = 4.74757486e-09

diagonal:  Solving for rho, Initial residual = 0, Final residual = 0, No Iterations 0
diagonal:  Solving for rhoUx, Initial residual = 0, Final residual = 0, No Iterations 0
diagonal:  Solving for rhoUy, Initial residual = 0, Final residual = 0, No Iterations 0
diagonal:  Solving for rhoUz, Initial residual = 0, Final residual = 0, No Iterations 0
smoothSolver:  Solving for Ux, Initial residual = 8.946820507e-06, Final residual = 2.696721856e-17, No Iterations 2
smoothSolver:  Solving for Uy, Initial residual = 0.004257766348, Final residual = 8.153585184e-17, No Iterations 2
smoothSolver:  Solving for Uz, Initial residual = 1.871762916e-05, Final residual = 3.751343351e-17, No Iterations 2
diagonal:  Solving for rhoEv, Initial residual = 0, Final residual = 0, No Iterations 0
diagonal:  Solving for rhoE, Initial residual = 0, Final residual = 0, No Iterations 0
Q_mag is working. max(Q_mag) = max(Rp) [1 -1 -3 0 0 0 0] 0
smoothSolver:  Solving for hevel, Initial residual = 0.01911342114, Final residual = 2.600107148e-10, No Iterations 2
Q_mag is working
smoothSolver:  Solving for e, Initial residual = 2.006071383e-07, Final residual = 4.379585658e-15, No Iterations 2
Phase no 1.0  ExecutionTime = 10.4 s  ClockTime = 10 s  Iteration no 12 (0.77 s)

Mean and max Courant Numbers = 5.204375532e-05 0.002929576256
deltaT = 1.06901442e-09
Time = 5.81658928e-09

diagonal:  Solving for rho, Initial residual = 0, Final residual = 0, No Iterations 0
diagonal:  Solving for rhoUx, Initial residual = 0, Final residual = 0, No Iterations 0
diagonal:  Solving for rhoUy, Initial residual = 0, Final residual = 0, No Iterations 0
diagonal:  Solving for rhoUz, Initial residual = 0, Final residual = 0, No Iterations 0
smoothSolver:  Solving for Ux, Initial residual = 8.755317296e-06, Final residual = 2.602846248e-17, No Iterations 2
smoothSolver:  Solving for Uy, Initial residual = 0.003353468251, Final residual = 8.820274019e-17, No Iterations 2
smoothSolver:  Solving for Uz, Initial residual = 1.849521403e-05, Final residual = 3.855754075e-17, No Iterations 2
diagonal:  Solving for rhoEv, Initial residual = 0, Final residual = 0, No Iterations 0
diagonal:  Solving for rhoE, Initial residual = 0, Final residual = 0, No Iterations 0
Q_mag is working. max(Q_mag) = max(Rp) [1 -1 -3 0 0 0 0] 0
smoothSolver:  Solving for hevel, Initial residual = 0.01864608132, Final residual = 2.103345948e-10, No Iterations 2
Q_mag is working
smoothSolver:  Solving for e, Initial residual = 2.375886455e-07, Final residual = 3.610724199e-15, No Iterations 2
Phase no 1.0  ExecutionTime = 11.16 s  ClockTime = 11 s  Iteration no 13 (0.76 s)

Mean and max Courant Numbers = 6.246660427e-05 0.003514862167
deltaT = 1.282817304e-09
Time = 7.099406584e-09

diagonal:  Solving for rho, Initial residual = 0, Final residual = 0, No Iterations 0
diagonal:  Solving for rhoUx, Initial residual = 0, Final residual = 0, No Iterations 0
diagonal:  Solving for rhoUy, Initial residual = 0, Final residual = 0, No Iterations 0
diagonal:  Solving for rhoUz, Initial residual = 0, Final residual = 0, No Iterations 0
smoothSolver:  Solving for Ux, Initial residual = 8.600768717e-06, Final residual = 2.481915855e-17, No Iterations 2
smoothSolver:  Solving for Uy, Initial residual = 0.002662572899, Final residual = 9.060225282e-17, No Iterations 2
smoothSolver:  Solving for Uz, Initial residual = 1.947530335e-05, Final residual = 3.835342258e-17, No Iterations 2
diagonal:  Solving for rhoEv, Initial residual = 0, Final residual = 0, No Iterations 0
diagonal:  Solving for rhoE, Initial residual = 0, Final residual = 0, No Iterations 0
Q_mag is working. max(Q_mag) = max(Rp) [1 -1 -3 0 0 0 0] 0
smoothSolver:  Solving for hevel, Initial residual = 0.0182760903, Final residual = 1.728796398e-10, No Iterations 2
Q_mag is working
smoothSolver:  Solving for e, Initial residual = 2.833732358e-07, Final residual = 2.93519582e-15, No Iterations 2
Phase no 1.0  ExecutionTime = 11.93 s  ClockTime = 11 s  Iteration no 14 (0.77 s)

Mean and max Courant Numbers = 7.49951718e-05 0.0042178346
deltaT = 1.539380765e-09
Time = 8.638787349e-09

diagonal:  Solving for rho, Initial residual = 0, Final residual = 0, No Iterations 0
diagonal:  Solving for rhoUx, Initial residual = 0, Final residual = 0, No Iterations 0
diagonal:  Solving for rhoUy, Initial residual = 0, Final residual = 0, No Iterations 0
diagonal:  Solving for rhoUz, Initial residual = 0, Final residual = 0, No Iterations 0
smoothSolver:  Solving for Ux, Initial residual = 8.473370561e-06, Final residual = 2.543446917e-17, No Iterations 2
smoothSolver:  Solving for Uy, Initial residual = 0.002126758679, Final residual = 1.131624962e-16, No Iterations 2
smoothSolver:  Solving for Uz, Initial residual = 2.089427771e-05, Final residual = 3.871304238e-17, No Iterations 2
diagonal:  Solving for rhoEv, Initial residual = 0, Final residual = 0, No Iterations 0
diagonal:  Solving for rhoE, Initial residual = 0, Final residual = 0, No Iterations 0
Q_mag is working. max(Q_mag) = max(Rp) [1 -1 -3 0 0 0 0] 0
smoothSolver:  Solving for hevel, Initial residual = 0.01779492799, Final residual = 1.394625499e-10, No Iterations 2
Q_mag is working
smoothSolver:  Solving for e, Initial residual = 3.400741032e-07, Final residual = 2.44739584e-15, No Iterations 2
Phase no 1.0  ExecutionTime = 12.72 s  ClockTime = 12 s  Iteration no 15 (0.79 s)

Mean and max Courant Numbers = 9.0043192e-05 0.00506140152
deltaT = 1.846110266e-09
Time = 1.048489761e-08

diagonal:  Solving for rho, Initial residual = 0, Final residual = 0, No Iterations 0
diagonal:  Solving for rhoUx, Initial residual = 0, Final residual = 0, No Iterations 0
diagonal:  Solving for rhoUy, Initial residual = 0, Final residual = 0, No Iterations 0
diagonal:  Solving for rhoUz, Initial residual = 0, Final residual = 0, No Iterations 0
smoothSolver:  Solving for Ux, Initial residual = 8.362630221e-06, Final residual = 2.610032829e-17, No Iterations 2
smoothSolver:  Solving for Uy, Initial residual = 0.001705827226, Final residual = 1.276496786e-16, No Iterations 2
smoothSolver:  Solving for Uz, Initial residual = 2.015496203e-05, Final residual = 3.948678149e-17, No Iterations 2
diagonal:  Solving for rhoEv, Initial residual = 0, Final residual = 0, No Iterations 0
diagonal:  Solving for rhoE, Initial residual = 0, Final residual = 0, No Iterations 0
Q_mag is working. max(Q_mag) = max(Rp) [1 -1 -3 0 0 0 0] 0
smoothSolver:  Solving for hevel, Initial residual = 0.01686725447, Final residual = 1.103411407e-10, No Iterations 2
Q_mag is working
smoothSolver:  Solving for e, Initial residual = 4.101879381e-07, Final residual = 2.00978366e-15, No Iterations 2
Phase no 1.0  ExecutionTime = 13.47 s  ClockTime = 13 s  Iteration no 16 (0.75 s)

Mean and max Courant Numbers = 0.0001080525313 0.006069911693
deltaT = 2.213680319e-09
Time = 1.269857793e-08

diagonal:  Solving for rho, Initial residual = 0, Final residual = 0, No Iterations 0
diagonal:  Solving for rhoUx, Initial residual = 0, Final residual = 0, No Iterations 0
diagonal:  Solving for rhoUy, Initial residual = 0, Final residual = 0, No Iterations 0
diagonal:  Solving for rhoUz, Initial residual = 0, Final residual = 0, No Iterations 0
smoothSolver:  Solving for Ux, Initial residual = 8.267976542e-06, Final residual = 2.531047558e-17, No Iterations 2
smoothSolver:  Solving for Uy, Initial residual = 0.001373003298, Final residual = 1.529423607e-16, No Iterations 2
smoothSolver:  Solving for Uz, Initial residual = 2.101524221e-05, Final residual = 4.104497586e-17, No Iterations 2
diagonal:  Solving for rhoEv, Initial residual = 0, Final residual = 0, No Iterations 0
diagonal:  Solving for rhoE, Initial residual = 0, Final residual = 0, No Iterations 0
Q_mag is working. max(Q_mag) = max(Rp) [1 -1 -3 0 0 0 0] 0
smoothSolver:  Solving for hevel, Initial residual = 0.01488171275, Final residual = 8.170120131e-11, No Iterations 2
Q_mag is working
smoothSolver:  Solving for e, Initial residual = 4.973088849e-07, Final residual = 1.678301856e-15, No Iterations 2
Phase no 1.0  ExecutionTime = 14.27 s  ClockTime = 14 s  Iteration no 17 (0.8 s)

Mean and max Courant Numbers = 0.0001296597792 0.007278462343
deltaT = 2.654036081e-09
Time = 1.535261401e-08

diagonal:  Solving for rho, Initial residual = 0, Final residual = 0, No Iterations 0
diagonal:  Solving for rhoUx, Initial residual = 0, Final residual = 0, No Iterations 0
diagonal:  Solving for rhoUy, Initial residual = 0, Final residual = 0, No Iterations 0
diagonal:  Solving for rhoUz, Initial residual = 0, Final residual = 0, No Iterations 0
smoothSolver:  Solving for Ux, Initial residual = 8.185406256e-06, Final residual = 2.678257693e-17, No Iterations 2
smoothSolver:  Solving for Uy, Initial residual = 0.001107949878, Final residual = 1.856669301e-16, No Iterations 2
smoothSolver:  Solving for Uz, Initial residual = 2.326057352e-05, Final residual = 4.429685851e-17, No Iterations 2
diagonal:  Solving for rhoEv, Initial residual = 0, Final residual = 0, No Iterations 0
diagonal:  Solving for rhoE, Initial residual = 0, Final residual = 0, No Iterations 0
Q_mag is working. max(Q_mag) = max(Rp) [1 -1 -3 0 0 0 0] 0
smoothSolver:  Solving for hevel, Initial residual = 0.01114322317, Final residual = 5.061138127e-11, No Iterations 2
Q_mag is working
smoothSolver:  Solving for e, Initial residual = 6.058353949e-07, Final residual = 1.403458708e-15, No Iterations 2
Phase no 1.0  ExecutionTime = 15.05 s  ClockTime = 15 s  Iteration no 18 (0.78 s)

Mean and max Courant Numbers = 0.000155580671 0.008726328508
deltaT = 3.18656112e-09
Time = 1.853917513e-08

diagonal:  Solving for rho, Initial residual = 0, Final residual = 0, No Iterations 0
diagonal:  Solving for rhoUx, Initial residual = 0, Final residual = 0, No Iterations 0
diagonal:  Solving for rhoUy, Initial residual = 0, Final residual = 0, No Iterations 0
diagonal:  Solving for rhoUz, Initial residual = 0, Final residual = 0, No Iterations 0
smoothSolver:  Solving for Ux, Initial residual = 8.122496998e-06, Final residual = 2.868609374e-17, No Iterations 2
smoothSolver:  Solving for Uy, Initial residual = 0.0008966571315, Final residual = 2.209150232e-16, No Iterations 2
smoothSolver:  Solving for Uz, Initial residual = 2.611241908e-05, Final residual = 5.008933325e-17, No Iterations 2
diagonal:  Solving for rhoEv, Initial residual = 0, Final residual = 0, No Iterations 0
diagonal:  Solving for rhoE, Initial residual = 0, Final residual = 0, No Iterations 0
Q_mag is working. max(Q_mag) = max(Rp) [1 -1 -3 0 0 0 0] 0
smoothSolver:  Solving for hevel, Initial residual = 0.006422141772, Final residual = 2.439959708e-11, No Iterations 2
Q_mag is working
smoothSolver:  Solving for e, Initial residual = 7.42559941e-07, Final residual = 1.175595965e-15, No Iterations 2
Phase no 1.0  ExecutionTime = 15.83 s  ClockTime = 15 s  Iteration no 19 (0.78 s)

Mean and max Courant Numbers = 0.0001869737767 0.01047724232
deltaT = 3.818913715e-09
Time = 2.235808885e-08

diagonal:  Solving for rho, Initial residual = 0, Final residual = 0, No Iterations 0
diagonal:  Solving for rhoUx, Initial residual = 0, Final residual = 0, No Iterations 0
diagonal:  Solving for rhoUy, Initial residual = 0, Final residual = 0, No Iterations 0
diagonal:  Solving for rhoUz, Initial residual = 0, Final residual = 0, No Iterations 0
smoothSolver:  Solving for Ux, Initial residual = 8.052823622e-06, Final residual = 2.717397718e-17, No Iterations 2
smoothSolver:  Solving for Uy, Initial residual = 0.0007253946974, Final residual = 2.649081989e-16, No Iterations 2
smoothSolver:  Solving for Uz, Initial residual = 2.721647747e-05, Final residual = 5.918736711e-17, No Iterations 2
diagonal:  Solving for rhoEv, Initial residual = 0, Final residual = 0, No Iterations 0
diagonal:  Solving for rhoE, Initial residual = 0, Final residual = 0, No Iterations 0
Q_mag is working. max(Q_mag) = max(Rp) [1 -1 -3 0 0 0 0] 0
smoothSolver:  Solving for hevel, Initial residual = 0.002855888468, Final residual = 9.089780806e-12, No Iterations 2
Q_mag is working
smoothSolver:  Solving for e, Initial residual = 9.125377738e-07, Final residual = 9.851391663e-16, No Iterations 2
Phase no 1.0  ExecutionTime = 16.64 s  ClockTime = 16 s  Iteration no 20 (0.81 s)

Mean and max Courant Numbers = 0.0002243179649 0.01295239155
deltaT = 4.589868127e-09
Time = 2.694795698e-08

diagonal:  Solving for rho, Initial residual = 0, Final residual = 0, No Iterations 0
diagonal:  Solving for rhoUx, Initial residual = 0, Final residual = 0, No Iterations 0
diagonal:  Solving for rhoUy, Initial residual = 0, Final residual = 0, No Iterations 0
diagonal:  Solving for rhoUz, Initial residual = 0, Final residual = 0, No Iterations 0
smoothSolver:  Solving for Ux, Initial residual = 8.007888936e-06, Final residual = 2.859902037e-17, No Iterations 2
smoothSolver:  Solving for Uy, Initial residual = 0.0005885279024, Final residual = 3.14999554e-16, No Iterations 2
smoothSolver:  Solving for Uz, Initial residual = 3.163106238e-05, Final residual = 8.037256594e-17, No Iterations 2
diagonal:  Solving for rhoEv, Initial residual = 0, Final residual = 0, No Iterations 0
diagonal:  Solving for rhoE, Initial residual = 0, Final residual = 0, No Iterations 0
Q_mag is working. max(Q_mag) = max(Rp) [1 -1 -3 0 0 0 0] 0
smoothSolver:  Solving for hevel, Initial residual = 0.001095269734, Final residual = 2.87245656e-12, No Iterations 2
Q_mag is working
smoothSolver:  Solving for e, Initial residual = 1.129268534e-06, Final residual = 8.249936527e-16, No Iterations 2
Phase no 1.0  ExecutionTime = 17.43 s  ClockTime = 17 s  Iteration no 21 (0.79 s)

Mean and max Courant Numbers = 0.0002699316672 0.01661155899
deltaT = 5.49746917e-09
Time = 3.244542615e-08

diagonal:  Solving for rho, Initial residual = 0, Final residual = 0, No Iterations 0
diagonal:  Solving for rhoUx, Initial residual = 0, Final residual = 0, No Iterations 0
diagonal:  Solving for rhoUy, Initial residual = 0, Final residual = 0, No Iterations 0
diagonal:  Solving for rhoUz, Initial residual = 0, Final residual = 0, No Iterations 0
smoothSolver:  Solving for Ux, Initial residual = 7.939906608e-06, Final residual = 3.372179333e-17, No Iterations 2
smoothSolver:  Solving for Uy, Initial residual = 0.0004762058393, Final residual = 3.751044536e-16, No Iterations 2
smoothSolver:  Solving for Uz, Initial residual = 3.299932568e-05, Final residual = 1.122225365e-16, No Iterations 2
diagonal:  Solving for rhoEv, Initial residual = 0, Final residual = 0, No Iterations 0
diagonal:  Solving for rhoE, Initial residual = 0, Final residual = 0, No Iterations 0
Q_mag is working. max(Q_mag) = max(Rp) [1 -1 -3 0 0 0 0] 0
smoothSolver:  Solving for hevel, Initial residual = 0.000397839169, Final residual = 8.725845854e-13, No Iterations 2
Q_mag is working
smoothSolver:  Solving for e, Initial residual = 1.398150418e-06, Final residual = 7.062804951e-16, No Iterations 2
Phase no 1.0  ExecutionTime = 18.24 s  ClockTime = 18 s  Iteration no 22 (0.81 s)

Mean and max Courant Numbers = 0.0003237533728 0.02125462735
deltaT = 6.582003904e-09
Time = 3.902743005e-08

diagonal:  Solving for rho, Initial residual = 0, Final residual = 0, No Iterations 0
diagonal:  Solving for rhoUx, Initial residual = 0, Final residual = 0, No Iterations 0
diagonal:  Solving for rhoUy, Initial residual = 0, Final residual = 0, No Iterations 0
diagonal:  Solving for rhoUz, Initial residual = 0, Final residual = 0, No Iterations 0
smoothSolver:  Solving for Ux, Initial residual = 7.869696227e-06, Final residual = 3.909318011e-17, No Iterations 2
smoothSolver:  Solving for Uy, Initial residual = 0.0003853598461, Final residual = 4.32373628e-16, No Iterations 2
smoothSolver:  Solving for Uz, Initial residual = 3.67329386e-05, Final residual = 1.710968726e-16, No Iterations 2
diagonal:  Solving for rhoEv, Initial residual = 0, Final residual = 0, No Iterations 0
diagonal:  Solving for rhoE, Initial residual = 0, Final residual = 0, No Iterations 0
Q_mag is working. max(Q_mag) = max(Rp) [1 -1 -3 0 0 0 0] 0
smoothSolver:  Solving for hevel, Initial residual = 0.0001449412716, Final residual = 2.644520004e-13, No Iterations 2
Q_mag is working
smoothSolver:  Solving for e, Initial residual = 1.736312234e-06, Final residual = 6.056446987e-16, No Iterations 2
Phase no 1.0  ExecutionTime = 19 s  ClockTime = 19 s  Iteration no 23 (0.76 s)

Mean and max Courant Numbers = 0.0003882242617 0.0272006281
deltaT = 7.876824344e-09
Time = 4.690425439e-08

diagonal:  Solving for rho, Initial residual = 0, Final residual = 0, No Iterations 0
diagonal:  Solving for rhoUx, Initial residual = 0, Final residual = 0, No Iterations 0
diagonal:  Solving for rhoUy, Initial residual = 0, Final residual = 0, No Iterations 0
diagonal:  Solving for rhoUz, Initial residual = 0, Final residual = 0, No Iterations 0
smoothSolver:  Solving for Ux, Initial residual = 7.793505035e-06, Final residual = 4.542102749e-17, No Iterations 2
smoothSolver:  Solving for Uy, Initial residual = 0.000311784135, Final residual = 4.806468266e-16, No Iterations 2
smoothSolver:  Solving for Uz, Initial residual = 4.01128284e-05, Final residual = 2.782831587e-16, No Iterations 2
diagonal:  Solving for rhoEv, Initial residual = 0, Final residual = 0, No Iterations 0
diagonal:  Solving for rhoE, Initial residual = 0, Final residual = 0, No Iterations 0
Q_mag is working. max(Q_mag) = max(Rp) [1 -1 -3 0 0 0 0] 0
smoothSolver:  Solving for hevel, Initial residual = 5.459003898e-05, Final residual = 8.184201899e-14, No Iterations 2
Q_mag is working
smoothSolver:  Solving for e, Initial residual = 2.161627209e-06, Final residual = 5.552724363e-16, No Iterations 2
Phase no 1.0  ExecutionTime = 19.77 s  ClockTime = 19 s  Iteration no 24 (0.77 s)

Mean and max Courant Numbers = 0.0004654050383 0.03479463456
deltaT = 9.436591541e-09
Time = 5.634084593e-08

diagonal:  Solving for rho, Initial residual = 0, Final residual = 0, No Iterations 0
diagonal:  Solving for rhoUx, Initial residual = 0, Final residual = 0, No Iterations 0
diagonal:  Solving for rhoUy, Initial residual = 0, Final residual = 0, No Iterations 0
diagonal:  Solving for rhoUz, Initial residual = 0, Final residual = 0, No Iterations 0
smoothSolver:  Solving for Ux, Initial residual = 7.720469535e-06, Final residual = 5.981536242e-17, No Iterations 2
smoothSolver:  Solving for Uy, Initial residual = 0.000252432274, Final residual = 5.023847549e-16, No Iterations 2
smoothSolver:  Solving for Uz, Initial residual = 4.47909216e-05, Final residual = 4.719775214e-16, No Iterations 2
diagonal:  Solving for rhoEv, Initial residual = 0, Final residual = 0, No Iterations 0
diagonal:  Solving for rhoE, Initial residual = 0, Final residual = 0, No Iterations 0
Q_mag is working. max(Q_mag) = max(Rp) [1 -1 -3 0 0 0 0] 0
smoothSolver:  Solving for hevel, Initial residual = 2.199488482e-05, Final residual = 2.619529359e-14, No Iterations 2
Q_mag is working
smoothSolver:  Solving for e, Initial residual = 2.700128787e-06, Final residual = 5.584661337e-16, No Iterations 2
Phase no 1.0  ExecutionTime = 20.57 s  ClockTime = 20 s  Iteration no 25 (0.8 s)

Mean and max Courant Numbers = 0.0005586524445 0.04453729278
deltaT = 1.13693874e-08
Time = 6.771023333e-08

diagonal:  Solving for rho, Initial residual = 0, Final residual = 0, No Iterations 0
diagonal:  Solving for rhoUx, Initial residual = 0, Final residual = 0, No Iterations 0
diagonal:  Solving for rhoUy, Initial residual = 0, Final residual = 0, No Iterations 0
diagonal:  Solving for rhoUz, Initial residual = 0, Final residual = 0, No Iterations 0
smoothSolver:  Solving for Ux, Initial residual = 7.67565629e-06, Final residual = 8.560444353e-17, No Iterations 2
smoothSolver:  Solving for Uy, Initial residual = 0.0002061449172, Final residual = 4.836237395e-16, No Iterations 2
smoothSolver:  Solving for Uz, Initial residual = 4.948540962e-05, Final residual = 8.37875996e-16, No Iterations 2
diagonal:  Solving for rhoEv, Initial residual = 0, Final residual = 0, No Iterations 0
diagonal:  Solving for rhoE, Initial residual = 0, Final residual = 0, No Iterations 0
Q_mag is working. max(Q_mag) = max(Rp) [1 -1 -3 0 0 0 0] 0
smoothSolver:  Solving for hevel, Initial residual = 1.013570215e-05, Final residual = 8.722058165e-15, No Iterations 2
Q_mag is working
smoothSolver:  Solving for e, Initial residual = 3.395355122e-06, Final residual = 6.773467434e-16, No Iterations 2
Phase no 1.0  ExecutionTime = 21.37 s  ClockTime = 21 s  Iteration no 26 (0.8 s)

Mean and max Courant Numbers = 0.0006745523737 0.057293158
deltaT = 1.371014363e-08
Time = 8.142037696e-08

diagonal:  Solving for rho, Initial residual = 0, Final residual = 0, No Iterations 0
diagonal:  Solving for rhoUx, Initial residual = 0, Final residual = 0, No Iterations 0
diagonal:  Solving for rhoUy, Initial residual = 0, Final residual = 0, No Iterations 0
diagonal:  Solving for rhoUz, Initial residual = 0, Final residual = 0, No Iterations 0
smoothSolver:  Solving for Ux, Initial residual = 7.619109227e-06, Final residual = 1.209912064e-16, No Iterations 2
smoothSolver:  Solving for Uy, Initial residual = 0.0001782941911, Final residual = 6.001403669e-16, No Iterations 2
smoothSolver:  Solving for Uz, Initial residual = 5.598311788e-05, Final residual = 1.523585943e-15, No Iterations 2
diagonal:  Solving for rhoEv, Initial residual = 0, Final residual = 0, No Iterations 0
diagonal:  Solving for rhoE, Initial residual = 0, Final residual = 0, No Iterations 0
Q_mag is working. max(Q_mag) = max(Rp) [1 -1 -3 0 0 0 0] 0
smoothSolver:  Solving for hevel, Initial residual = 5.925790834e-06, Final residual = 3.05516577e-15, No Iterations 2
Q_mag is working
smoothSolver:  Solving for e, Initial residual = 4.274742695e-06, Final residual = 9.948957033e-16, No Iterations 2
Phase no 1.0  ExecutionTime = 22.15 s  ClockTime = 22 s  Iteration no 27 (0.78 s)

Mean and max Courant Numbers = 0.0008154360359 0.07367372189
deltaT = 1.640320755e-08
Time = 9.782358451e-08

diagonal:  Solving for rho, Initial residual = 0, Final residual = 0, No Iterations 0
diagonal:  Solving for rhoUx, Initial residual = 0, Final residual = 0, No Iterations 0
diagonal:  Solving for rhoUy, Initial residual = 0, Final residual = 0, No Iterations 0
diagonal:  Solving for rhoUz, Initial residual = 0, Final residual = 0, No Iterations 0
smoothSolver:  Solving for Ux, Initial residual = 7.493619489e-06, Final residual = 1.734919478e-16, No Iterations 2
smoothSolver:  Solving for Uy, Initial residual = 0.0001609488507, Final residual = 9.67290133e-16, No Iterations 2
smoothSolver:  Solving for Uz, Initial residual = 5.985574201e-05, Final residual = 2.702254316e-15, No Iterations 2
diagonal:  Solving for rhoEv, Initial residual = 0, Final residual = 0, No Iterations 0
diagonal:  Solving for rhoE, Initial residual = 0, Final residual = 0, No Iterations 0
Q_mag is working. max(Q_mag) = max(Rp) [1 -1 -3 0 0 0 0] 0
smoothSolver:  Solving for hevel, Initial residual = 4.697769037e-06, Final residual = 1.261455211e-15, No Iterations 2
Q_mag is working
smoothSolver:  Solving for e, Initial residual = 5.337062417e-06, Final residual = 1.690727811e-15, No Iterations 2
Phase no 1.0  ExecutionTime = 22.91 s  ClockTime = 22 s  Iteration no 28 (0.76 s)

Mean and max Courant Numbers = 0.0009782946456 0.09377068107
deltaT = 1.961253077e-08
Time = 1.174361153e-07

diagonal:  Solving for rho, Initial residual = 0, Final residual = 0, No Iterations 0
diagonal:  Solving for rhoUx, Initial residual = 0, Final residual = 0, No Iterations 0
diagonal:  Solving for rhoUy, Initial residual = 0, Final residual = 0, No Iterations 0
diagonal:  Solving for rhoUz, Initial residual = 0, Final residual = 0, No Iterations 0
smoothSolver:  Solving for Ux, Initial residual = 7.352783349e-06, Final residual = 2.435404131e-16, No Iterations 2
smoothSolver:  Solving for Uy, Initial residual = 0.0001492381352, Final residual = 1.694678512e-15, No Iterations 2
smoothSolver:  Solving for Uz, Initial residual = 6.580856704e-05, Final residual = 4.636819107e-15, No Iterations 2
diagonal:  Solving for rhoEv, Initial residual = 0, Final residual = 0, No Iterations 0
diagonal:  Solving for rhoE, Initial residual = 0, Final residual = 0, No Iterations 0
Q_mag is working. max(Q_mag) = max(Rp) [1 -1 -3 0 0 0 0] 0
smoothSolver:  Solving for hevel, Initial residual = 4.770032935e-06, Final residual = 7.729905636e-16, No Iterations 2
Q_mag is working
smoothSolver:  Solving for e, Initial residual = 6.644186571e-06, Final residual = 3.127321846e-15, No Iterations 2
Phase no 1.0  ExecutionTime = 23.68 s  ClockTime = 23 s  Iteration no 29 (0.77 s)

Mean and max Courant Numbers = 0.00117335886 0.1189149581
deltaT = 2.322536539e-08
Time = 1.406614807e-07

diagonal:  Solving for rho, Initial residual = 0, Final residual = 0, No Iterations 0
diagonal:  Solving for rhoUx, Initial residual = 0, Final residual = 0, No Iterations 0
diagonal:  Solving for rhoUy, Initial residual = 0, Final residual = 0, No Iterations 0
diagonal:  Solving for rhoUz, Initial residual = 0, Final residual = 0, No Iterations 0
smoothSolver:  Solving for Ux, Initial residual = 7.142787735e-06, Final residual = 3.11668576e-16, No Iterations 2
smoothSolver:  Solving for Uy, Initial residual = 0.000139282832, Final residual = 2.820502907e-15, No Iterations 2
smoothSolver:  Solving for Uz, Initial residual = 7.321197654e-05, Final residual = 7.846250522e-15, No Iterations 2
diagonal:  Solving for rhoEv, Initial residual = 0, Final residual = 0, No Iterations 0
diagonal:  Solving for rhoE, Initial residual = 0, Final residual = 0, No Iterations 0
Q_mag is working. max(Q_mag) = max(Rp) [1 -1 -3 0 0 0 0] 0
smoothSolver:  Solving for hevel, Initial residual = 5.456985516e-06, Final residual = 8.740933086e-16, No Iterations 2
Q_mag is working
smoothSolver:  Solving for e, Initial residual = 8.163269462e-06, Final residual = 5.797524359e-15, No Iterations 2
Phase no 1.0  ExecutionTime = 24.43 s  ClockTime = 24 s  Iteration no 30 (0.75 s)

Mean and max Courant Numbers = 0.001394436534 0.1487496416
deltaT = 2.77205974e-08
Time = 1.683820781e-07

diagonal:  Solving for rho, Initial residual = 0, Final residual = 0, No Iterations 0
diagonal:  Solving for rhoUx, Initial residual = 0, Final residual = 0, No Iterations 0
diagonal:  Solving for rhoUy, Initial residual = 0, Final residual = 0, No Iterations 0
diagonal:  Solving for rhoUz, Initial residual = 0, Final residual = 0, No Iterations 0
smoothSolver:  Solving for Ux, Initial residual = 6.97570878e-06, Final residual = 3.807926687e-16, No Iterations 2
smoothSolver:  Solving for Uy, Initial residual = 0.0001310529097, Final residual = 4.646329823e-15, No Iterations 2
smoothSolver:  Solving for Uz, Initial residual = 7.918296717e-05, Final residual = 1.310979067e-14, No Iterations 2
diagonal:  Solving for rhoEv, Initial residual = 0, Final residual = 0, No Iterations 0
diagonal:  Solving for rhoE, Initial residual = 0, Final residual = 0, No Iterations 0
Q_mag is working. max(Q_mag) = max(Rp) [1 -1 -3 0 0 0 0] 0
smoothSolver:  Solving for hevel, Initial residual = 6.61694309e-06, Final residual = 1.456713232e-15, No Iterations 2
Q_mag is working
smoothSolver:  Solving for e, Initial residual = 1.005069287e-05, Final residual = 1.101521084e-14, No Iterations 2
Phase no 1.0  ExecutionTime = 25.19 s  ClockTime = 25 s  Iteration no 31 (0.76 s)

Mean and max Courant Numbers = 0.001671127448 0.1867596067
deltaT = 3.198530469e-08
Time = 2.003673828e-07

diagonal:  Solving for rho, Initial residual = 0, Final residual = 0, No Iterations 0
diagonal:  Solving for rhoUx, Initial residual = 0, Final residual = 0, No Iterations 0
diagonal:  Solving for rhoUy, Initial residual = 0, Final residual = 0, No Iterations 0
diagonal:  Solving for rhoUz, Initial residual = 0, Final residual = 0, No Iterations 0
smoothSolver:  Solving for Ux, Initial residual = 6.605275832e-06, Final residual = 3.685252293e-16, No Iterations 2
smoothSolver:  Solving for Uy, Initial residual = 0.0001189269856, Final residual = 6.676976997e-15, No Iterations 2
smoothSolver:  Solving for Uz, Initial residual = 8.38480726e-05, Final residual = 2.021049556e-14, No Iterations 2
diagonal:  Solving for rhoEv, Initial residual = 0, Final residual = 0, No Iterations 0
diagonal:  Solving for rhoE, Initial residual = 0, Final residual = 0, No Iterations 0
Q_mag is working. max(Q_mag) = max(Rp) [1 -1 -3 0 0 0 0] 0
smoothSolver:  Solving for hevel, Initial residual = 7.896209919e-06, Final residual = 2.431600377e-15, No Iterations 2
Q_mag is working
smoothSolver:  Solving for e, Initial residual = 1.18928833e-05, Final residual = 1.87648909e-14, No Iterations 2
Phase no 1.0  ExecutionTime = 25.96 s  ClockTime = 26 s  Iteration no 32 (0.77 s)

Mean and max Courant Numbers = 0.001936993852 0.2253023613
deltaT = 3.634693715e-08
Time = 2.367143199e-07

diagonal:  Solving for rho, Initial residual = 0, Final residual = 0, No Iterations 0
diagonal:  Solving for rhoUx, Initial residual = 0, Final residual = 0, No Iterations 0
diagonal:  Solving for rhoUy, Initial residual = 0, Final residual = 0, No Iterations 0
diagonal:  Solving for rhoUz, Initial residual = 0, Final residual = 0, No Iterations 0
smoothSolver:  Solving for Ux, Initial residual = 6.420817406e-06, Final residual = 3.361520504e-16, No Iterations 2
smoothSolver:  Solving for Uy, Initial residual = 0.0001065737745, Final residual = 8.939753531e-15, No Iterations 2
smoothSolver:  Solving for Uz, Initial residual = 9.200728948e-05, Final residual = 3.013584889e-14, No Iterations 2
diagonal:  Solving for rhoEv, Initial residual = 0, Final residual = 0, No Iterations 0
diagonal:  Solving for rhoE, Initial residual = 0, Final residual = 0, No Iterations 0
Q_mag is working. max(Q_mag) = max(Rp) [1 -1 -3 0 0 0 0] 0
smoothSolver:  Solving for hevel, Initial residual = 9.306835029e-06, Final residual = 3.894746449e-15, No Iterations 2
Q_mag is working
smoothSolver:  Solving for e, Initial residual = 1.373656912e-05, Final residual = 2.991532329e-14, No Iterations 2
Phase no 1.0  ExecutionTime = 26.73 s  ClockTime = 26 s  Iteration no 33 (0.77 s)

Mean and max Courant Numbers = 0.002212089679 0.2659354461
deltaT = 4.017293053e-08
Time = 2.768872504e-07

diagonal:  Solving for rho, Initial residual = 0, Final residual = 0, No Iterations 0
diagonal:  Solving for rhoUx, Initial residual = 0, Final residual = 0, No Iterations 0
diagonal:  Solving for rhoUy, Initial residual = 0, Final residual = 0, No Iterations 0
diagonal:  Solving for rhoUz, Initial residual = 0, Final residual = 0, No Iterations 0
smoothSolver:  Solving for Ux, Initial residual = 6.626917574e-06, Final residual = 5.32258768e-16, No Iterations 2
smoothSolver:  Solving for Uy, Initial residual = 9.340293466e-05, Final residual = 1.077049783e-14, No Iterations 2
smoothSolver:  Solving for Uz, Initial residual = 9.218538168e-05, Final residual = 4.092238618e-14, No Iterations 2
diagonal:  Solving for rhoEv, Initial residual = 0, Final residual = 0, No Iterations 0
diagonal:  Solving for rhoE, Initial residual = 0, Final residual = 0, No Iterations 0
Q_mag is working. max(Q_mag) = max(Rp) [1 -1 -3 0 0 0 0] 0
smoothSolver:  Solving for hevel, Initial residual = 1.064887391e-05, Final residual = 5.675905933e-15, No Iterations 2
Q_mag is working
smoothSolver:  Solving for e, Initial residual = 1.528226038e-05, Final residual = 4.291406232e-14, No Iterations 2
Phase no 1.0  ExecutionTime = 27.5 s  ClockTime = 27 s  Iteration no 34 (0.77 s)

Mean and max Courant Numbers = 0.002457893912 0.3031725983
deltaT = 4.017293053e-08
Time = 3.17060181e-07

diagonal:  Solving for rho, Initial residual = 0, Final residual = 0, No Iterations 0
diagonal:  Solving for rhoUx, Initial residual = 0, Final residual = 0, No Iterations 0
diagonal:  Solving for rhoUy, Initial residual = 0, Final residual = 0, No Iterations 0
diagonal:  Solving for rhoUz, Initial residual = 0, Final residual = 0, No Iterations 0
smoothSolver:  Solving for Ux, Initial residual = 6.5768342e-06, Final residual = 7.406038495e-16, No Iterations 2
smoothSolver:  Solving for Uy, Initial residual = 7.623374977e-05, Final residual = 9.707751467e-15, No Iterations 2
smoothSolver:  Solving for Uz, Initial residual = 9.366655565e-05, Final residual = 4.261376806e-14, No Iterations 2
diagonal:  Solving for rhoEv, Initial residual = 0, Final residual = 0, No Iterations 0
diagonal:  Solving for rhoE, Initial residual = 0, Final residual = 0, No Iterations 0
Q_mag is working. max(Q_mag) = max(Rp) [1 -1 -3 0 0 0 0] 0
smoothSolver:  Solving for hevel, Initial residual = 1.099515349e-05, Final residual = 6.057194372e-15, No Iterations 2
Q_mag is working
smoothSolver:  Solving for e, Initial residual = 1.528379492e-05, Final residual = 4.49409194e-14, No Iterations 2
Phase no 1.0  ExecutionTime = 28.36 s  ClockTime = 28 s  Iteration no 35 (0.86 s)

Mean and max Courant Numbers = 0.002470484672 0.310104006
deltaT = 3.794110106e-08
Time = 3.55001282e-07

diagonal:  Solving for rho, Initial residual = 0, Final residual = 0, No Iterations 0
diagonal:  Solving for rhoUx, Initial residual = 0, Final residual = 0, No Iterations 0
diagonal:  Solving for rhoUy, Initial residual = 0, Final residual = 0, No Iterations 0
diagonal:  Solving for rhoUz, Initial residual = 0, Final residual = 0, No Iterations 0
smoothSolver:  Solving for Ux, Initial residual = 6.315389186e-06, Final residual = 7.975787541e-16, No Iterations 2
smoothSolver:  Solving for Uy, Initial residual = 6.07033143e-05, Final residual = 7.489566887e-15, No Iterations 2
smoothSolver:  Solving for Uz, Initial residual = 8.76036287e-05, Final residual = 3.643503505e-14, No Iterations 2
diagonal:  Solving for rhoEv, Initial residual = 0, Final residual = 0, No Iterations 0
diagonal:  Solving for rhoE, Initial residual = 0, Final residual = 0, No Iterations 0
Q_mag is working. max(Q_mag) = max(Rp) [1 -1 -3 0 0 0 0] 0
smoothSolver:  Solving for hevel, Initial residual = 1.065395882e-05, Final residual = 5.33809179e-15, No Iterations 2
Q_mag is working
smoothSolver:  Solving for e, Initial residual = 1.433250539e-05, Final residual = 3.88814529e-14, No Iterations 2
Phase no 1.0  ExecutionTime = 29.13 s  ClockTime = 29 s  Iteration no 36 (0.77 s)

Mean and max Courant Numbers = 0.002344394482 0.2974929321
deltaT = 3.794110106e-08
Time = 3.929423831e-07

diagonal:  Solving for rho, Initial residual = 0, Final residual = 0, No Iterations 0
diagonal:  Solving for rhoUx, Initial residual = 0, Final residual = 0, No Iterations 0
diagonal:  Solving for rhoUy, Initial residual = 0, Final residual = 0, No Iterations 0
diagonal:  Solving for rhoUz, Initial residual = 0, Final residual = 0, No Iterations 0
smoothSolver:  Solving for Ux, Initial residual = 6.426830986e-06, Final residual = 9.374445296e-16, No Iterations 2
smoothSolver:  Solving for Uy, Initial residual = 5.153701594e-05, Final residual = 6.717168832e-15, No Iterations 2
smoothSolver:  Solving for Uz, Initial residual = 8.423597973e-05, Final residual = 3.61976187e-14, No Iterations 2
diagonal:  Solving for rhoEv, Initial residual = 0, Final residual = 0, No Iterations 0
diagonal:  Solving for rhoE, Initial residual = 0, Final residual = 0, No Iterations 0
Q_mag is working. max(Q_mag) = max(Rp) [1 -1 -3 0 0 0 0] 0
smoothSolver:  Solving for hevel, Initial residual = 1.083723749e-05, Final residual = 5.449639734e-15, No Iterations 2
Q_mag is working
smoothSolver:  Solving for e, Initial residual = 1.408114282e-05, Final residual = 3.889404541e-14, No Iterations 2
Phase no 1.0  ExecutionTime = 29.9 s  ClockTime = 29 s  Iteration no 37 (0.77 s)

Mean and max Courant Numbers = 0.002355374794 0.3009100423
deltaT = 3.794110106e-08
Time = 4.308834841e-07

diagonal:  Solving for rho, Initial residual = 0, Final residual = 0, No Iterations 0
diagonal:  Solving for rhoUx, Initial residual = 0, Final residual = 0, No Iterations 0
diagonal:  Solving for rhoUy, Initial residual = 0, Final residual = 0, No Iterations 0
diagonal:  Solving for rhoUz, Initial residual = 0, Final residual = 0, No Iterations 0
smoothSolver:  Solving for Ux, Initial residual = 6.49837156e-06, Final residual = 1.045190297e-15, No Iterations 2
smoothSolver:  Solving for Uy, Initial residual = 4.392626007e-05, Final residual = 5.915869332e-15, No Iterations 2
smoothSolver:  Solving for Uz, Initial residual = 8.260215647e-05, Final residual = 3.635097793e-14, No Iterations 2
diagonal:  Solving for rhoEv, Initial residual = 0, Final residual = 0, No Iterations 0
diagonal:  Solving for rhoE, Initial residual = 0, Final residual = 0, No Iterations 0
Q_mag is working. max(Q_mag) = max(Rp) [1 -1 -3 0 0 0 0] 0
smoothSolver:  Solving for hevel, Initial residual = 1.097060723e-05, Final residual = 5.494580523e-15, No Iterations 2
Q_mag is working
smoothSolver:  Solving for e, Initial residual = 1.374266641e-05, Final residual = 3.839474868e-14, No Iterations 2
Phase no 1.0  ExecutionTime = 30.68 s  ClockTime = 30 s  Iteration no 38 (0.78 s)

Mean and max Courant Numbers = 0.002366154532 0.303358415
deltaT = 3.794110106e-08
Time = 4.688245852e-07

diagonal:  Solving for rho, Initial residual = 0, Final residual = 0, No Iterations 0
diagonal:  Solving for rhoUx, Initial residual = 0, Final residual = 0, No Iterations 0
diagonal:  Solving for rhoUy, Initial residual = 0, Final residual = 0, No Iterations 0
diagonal:  Solving for rhoUz, Initial residual = 0, Final residual = 0, No Iterations 0
smoothSolver:  Solving for Ux, Initial residual = 6.548166524e-06, Final residual = 1.121433526e-15, No Iterations 2
smoothSolver:  Solving for Uy, Initial residual = 3.770218229e-05, Final residual = 5.185372182e-15, No Iterations 2
smoothSolver:  Solving for Uz, Initial residual = 8.178507565e-05, Final residual = 3.776775812e-14, No Iterations 2
diagonal:  Solving for rhoEv, Initial residual = 0, Final residual = 0, No Iterations 0
diagonal:  Solving for rhoE, Initial residual = 0, Final residual = 0, No Iterations 0
Q_mag is working. max(Q_mag) = max(Rp) [1 -1 -3 0 0 0 0] 0
smoothSolver:  Solving for hevel, Initial residual = 1.105881665e-05, Final residual = 5.491915937e-15, No Iterations 2
Q_mag is working
smoothSolver:  Solving for e, Initial residual = 1.333288673e-05, Final residual = 3.750800743e-14, No Iterations 2
Phase no 1.0  ExecutionTime = 31.49 s  ClockTime = 31 s  Iteration no 39 (0.81 s)

Mean and max Courant Numbers = 0.002376768905 0.3050169706
deltaT = 3.794110106e-08
Time = 5.067656863e-07

diagonal:  Solving for rho, Initial residual = 0, Final residual = 0, No Iterations 0
diagonal:  Solving for rhoUx, Initial residual = 0, Final residual = 0, No Iterations 0
diagonal:  Solving for rhoUy, Initial residual = 0, Final residual = 0, No Iterations 0
diagonal:  Solving for rhoUz, Initial residual = 0, Final residual = 0, No Iterations 0
smoothSolver:  Solving for Ux, Initial residual = 6.574308413e-06, Final residual = 1.177632775e-15, No Iterations 2
smoothSolver:  Solving for Uy, Initial residual = 3.255671435e-05, Final residual = 4.526474214e-15, No Iterations 2
smoothSolver:  Solving for Uz, Initial residual = 7.582690139e-05, Final residual = 3.614283302e-14, No Iterations 2
diagonal:  Solving for rhoEv, Initial residual = 0, Final residual = 0, No Iterations 0
diagonal:  Solving for rhoE, Initial residual = 0, Final residual = 0, No Iterations 0
Q_mag is working. max(Q_mag) = max(Rp) [1 -1 -3 0 0 0 0] 0
smoothSolver:  Solving for hevel, Initial residual = 1.110564847e-05, Final residual = 5.438332089e-15, No Iterations 2
Q_mag is working
smoothSolver:  Solving for e, Initial residual = 1.286400773e-05, Final residual = 3.634060696e-14, No Iterations 2
Phase no 1.0  ExecutionTime = 32.31 s  ClockTime = 32 s  Iteration no 40 (0.82 s)

Mean and max Courant Numbers = 0.002387208281 0.3060259292
deltaT = 3.794110106e-08
Time = 5.447067873e-07

diagonal:  Solving for rho, Initial residual = 0, Final residual = 0, No Iterations 0
diagonal:  Solving for rhoUx, Initial residual = 0, Final residual = 0, No Iterations 0
diagonal:  Solving for rhoUy, Initial residual = 0, Final residual = 0, No Iterations 0
diagonal:  Solving for rhoUz, Initial residual = 0, Final residual = 0, No Iterations 0
smoothSolver:  Solving for Ux, Initial residual = 6.569759113e-06, Final residual = 1.215893158e-15, No Iterations 2
smoothSolver:  Solving for Uy, Initial residual = 2.826367181e-05, Final residual = 3.953385164e-15, No Iterations 2
smoothSolver:  Solving for Uz, Initial residual = 7.319049017e-05, Final residual = 3.452841502e-14, No Iterations 2
diagonal:  Solving for rhoEv, Initial residual = 0, Final residual = 0, No Iterations 0
diagonal:  Solving for rhoE, Initial residual = 0, Final residual = 0, No Iterations 0
Q_mag is working. max(Q_mag) = max(Rp) [1 -1 -3 0 0 0 0] 0
smoothSolver:  Solving for hevel, Initial residual = 1.111420247e-05, Final residual = 5.357092294e-15, No Iterations 2
Q_mag is working
smoothSolver:  Solving for e, Initial residual = 1.2347487e-05, Final residual = 3.498373679e-14, No Iterations 2
Phase no 1.0  ExecutionTime = 33.09 s  ClockTime = 33 s  Iteration no 41 (0.78 s)

Mean and max Courant Numbers = 0.002397480706 0.3064960232
deltaT = 3.794110106e-08
Time = 5.826478884e-07

diagonal:  Solving for rho, Initial residual = 0, Final residual = 0, No Iterations 0
diagonal:  Solving for rhoUx, Initial residual = 0, Final residual = 0, No Iterations 0
diagonal:  Solving for rhoUy, Initial residual = 0, Final residual = 0, No Iterations 0
diagonal:  Solving for rhoUz, Initial residual = 0, Final residual = 0, No Iterations 0
smoothSolver:  Solving for Ux, Initial residual = 6.532042632e-06, Final residual = 1.235947516e-15, No Iterations 2
smoothSolver:  Solving for Uy, Initial residual = 2.465149779e-05, Final residual = 3.446884956e-15, No Iterations 2
smoothSolver:  Solving for Uz, Initial residual = 7.174572662e-05, Final residual = 3.52831977e-14, No Iterations 2
diagonal:  Solving for rhoEv, Initial residual = 0, Final residual = 0, No Iterations 0
diagonal:  Solving for rhoE, Initial residual = 0, Final residual = 0, No Iterations 0
Q_mag is working. max(Q_mag) = max(Rp) [1 -1 -3 0 0 0 0] 0
smoothSolver:  Solving for hevel, Initial residual = 1.108773196e-05, Final residual = 5.242899202e-15, No Iterations 2
Q_mag is working
smoothSolver:  Solving for e, Initial residual = 1.179655484e-05, Final residual = 3.353468412e-14, No Iterations 2
Phase no 1.0  ExecutionTime = 33.87 s  ClockTime = 33 s  Iteration no 42 (0.78 s)

Mean and max Courant Numbers = 0.00240763724 0.306515077
deltaT = 3.794110106e-08
Time = 6.205889894e-07

diagonal:  Solving for rho, Initial residual = 0, Final residual = 0, No Iterations 0
diagonal:  Solving for rhoUx, Initial residual = 0, Final residual = 0, No Iterations 0
diagonal:  Solving for rhoUy, Initial residual = 0, Final residual = 0, No Iterations 0
diagonal:  Solving for rhoUz, Initial residual = 0, Final residual = 0, No Iterations 0
smoothSolver:  Solving for Ux, Initial residual = 6.468778522e-06, Final residual = 1.251307155e-15, No Iterations 2
smoothSolver:  Solving for Uy, Initial residual = 2.158944479e-05, Final residual = 3.0103578e-15, No Iterations 2
smoothSolver:  Solving for Uz, Initial residual = 7.016477156e-05, Final residual = 3.43647678e-14, No Iterations 2
diagonal:  Solving for rhoEv, Initial residual = 0, Final residual = 0, No Iterations 0
diagonal:  Solving for rhoE, Initial residual = 0, Final residual = 0, No Iterations 0
Q_mag is working. max(Q_mag) = max(Rp) [1 -1 -3 0 0 0 0] 0
smoothSolver:  Solving for hevel, Initial residual = 1.10283516e-05, Final residual = 5.127509421e-15, No Iterations 2
Q_mag is working
smoothSolver:  Solving for e, Initial residual = 1.122171737e-05, Final residual = 3.20490878e-14, No Iterations 2
Phase no 1.0  ExecutionTime = 34.64 s  ClockTime = 34 s  Iteration no 43 (0.77 s)

Mean and max Courant Numbers = 0.002417687843 0.3061528577
deltaT = 3.794110106e-08
Time = 6.585300905e-07

diagonal:  Solving for rho, Initial residual = 0, Final residual = 0, No Iterations 0
diagonal:  Solving for rhoUx, Initial residual = 0, Final residual = 0, No Iterations 0
diagonal:  Solving for rhoUy, Initial residual = 0, Final residual = 0, No Iterations 0
diagonal:  Solving for rhoUz, Initial residual = 0, Final residual = 0, No Iterations 0
smoothSolver:  Solving for Ux, Initial residual = 6.38586234e-06, Final residual = 1.261793743e-15, No Iterations 2
smoothSolver:  Solving for Uy, Initial residual = 1.897603235e-05, Final residual = 2.636645464e-15, No Iterations 2
smoothSolver:  Solving for Uz, Initial residual = 6.779782135e-05, Final residual = 3.356665119e-14, No Iterations 2
diagonal:  Solving for rhoEv, Initial residual = 0, Final residual = 0, No Iterations 0
diagonal:  Solving for rhoE, Initial residual = 0, Final residual = 0, No Iterations 0
Q_mag is working. max(Q_mag) = max(Rp) [1 -1 -3 0 0 0 0] 0
smoothSolver:  Solving for hevel, Initial residual = 1.093731951e-05, Final residual = 5.0010559e-15, No Iterations 2
Q_mag is working
smoothSolver:  Solving for e, Initial residual = 1.063166365e-05, Final residual = 3.056622806e-14, No Iterations 2
Phase no 1.0  ExecutionTime = 35.39 s  ClockTime = 35 s  Iteration no 44 (0.75 s)

Mean and max Courant Numbers = 0.002427639545 0.3054647598
deltaT = 3.794110106e-08
Time = 6.964711915e-07

diagonal:  Solving for rho, Initial residual = 0, Final residual = 0, No Iterations 0
diagonal:  Solving for rhoUx, Initial residual = 0, Final residual = 0, No Iterations 0
diagonal:  Solving for rhoUy, Initial residual = 0, Final residual = 0, No Iterations 0
diagonal:  Solving for rhoUz, Initial residual = 0, Final residual = 0, No Iterations 0
smoothSolver:  Solving for Ux, Initial residual = 6.287905764e-06, Final residual = 1.256781741e-15, No Iterations 2
smoothSolver:  Solving for Uy, Initial residual = 1.673210689e-05, Final residual = 2.311653606e-15, No Iterations 2
smoothSolver:  Solving for Uz, Initial residual = 6.497236859e-05, Final residual = 3.254017622e-14, No Iterations 2
diagonal:  Solving for rhoEv, Initial residual = 0, Final residual = 0, No Iterations 0
diagonal:  Solving for rhoE, Initial residual = 0, Final residual = 0, No Iterations 0
Q_mag is working. max(Q_mag) = max(Rp) [1 -1 -3 0 0 0 0] 0
smoothSolver:  Solving for hevel, Initial residual = 1.081429344e-05, Final residual = 4.865032311e-15, No Iterations 2
Q_mag is working
smoothSolver:  Solving for e, Initial residual = 1.003371679e-05, Final residual = 2.912723609e-14, No Iterations 2
Phase no 1.0  ExecutionTime = 36.17 s  ClockTime = 36 s  Iteration no 45 (0.78 s)

Mean and max Courant Numbers = 0.00243751227 0.3044946664
deltaT = 3.794110106e-08
Time = 7.344122926e-07

diagonal:  Solving for rho, Initial residual = 0, Final residual = 0, No Iterations 0
diagonal:  Solving for rhoUx, Initial residual = 0, Final residual = 0, No Iterations 0
diagonal:  Solving for rhoUy, Initial residual = 0, Final residual = 0, No Iterations 0
diagonal:  Solving for rhoUz, Initial residual = 0, Final residual = 0, No Iterations 0
smoothSolver:  Solving for Ux, Initial residual = 6.17857055e-06, Final residual = 1.252846203e-15, No Iterations 2
smoothSolver:  Solving for Uy, Initial residual = 1.47954775e-05, Final residual = 2.037747416e-15, No Iterations 2
smoothSolver:  Solving for Uz, Initial residual = 6.329991621e-05, Final residual = 3.142617203e-14, No Iterations 2
diagonal:  Solving for rhoEv, Initial residual = 0, Final residual = 0, No Iterations 0
diagonal:  Solving for rhoE, Initial residual = 0, Final residual = 0, No Iterations 0
Q_mag is working. max(Q_mag) = max(Rp) [1 -1 -3 0 0 0 0] 0
smoothSolver:  Solving for hevel, Initial residual = 1.065925217e-05, Final residual = 4.729334444e-15, No Iterations 2
Q_mag is working
smoothSolver:  Solving for e, Initial residual = 9.434018793e-06, Final residual = 2.774420588e-14, No Iterations 2
Phase no 1.0  ExecutionTime = 36.92 s  ClockTime = 36 s  Iteration no 46 (0.75 s)

Mean and max Courant Numbers = 0.002447317627 0.3032771809
deltaT = 3.794110106e-08
Time = 7.723533937e-07

diagonal:  Solving for rho, Initial residual = 0, Final residual = 0, No Iterations 0
diagonal:  Solving for rhoUx, Initial residual = 0, Final residual = 0, No Iterations 0
diagonal:  Solving for rhoUy, Initial residual = 0, Final residual = 0, No Iterations 0
diagonal:  Solving for rhoUz, Initial residual = 0, Final residual = 0, No Iterations 0
smoothSolver:  Solving for Ux, Initial residual = 6.060802406e-06, Final residual = 1.244286783e-15, No Iterations 2
smoothSolver:  Solving for Uy, Initial residual = 1.311667256e-05, Final residual = 1.796755224e-15, No Iterations 2
smoothSolver:  Solving for Uz, Initial residual = 5.95835248e-05, Final residual = 2.93100463e-14, No Iterations 2
diagonal:  Solving for rhoEv, Initial residual = 0, Final residual = 0, No Iterations 0
diagonal:  Solving for rhoE, Initial residual = 0, Final residual = 0, No Iterations 0
Q_mag is working. max(Q_mag) = max(Rp) [1 -1 -3 0 0 0 0] 0
smoothSolver:  Solving for hevel, Initial residual = 1.047209127e-05, Final residual = 4.581101376e-15, No Iterations 2
Q_mag is working
smoothSolver:  Solving for e, Initial residual = 8.837658845e-06, Final residual = 2.642320221e-14, No Iterations 2
Phase no 1.0  ExecutionTime = 37.7 s  ClockTime = 37 s  Iteration no 47 (0.78 s)

Mean and max Courant Numbers = 0.002457049703 0.3018393861
deltaT = 3.794110106e-08
Time = 8.102944947e-07

diagonal:  Solving for rho, Initial residual = 0, Final residual = 0, No Iterations 0
diagonal:  Solving for rhoUx, Initial residual = 0, Final residual = 0, No Iterations 0
diagonal:  Solving for rhoUy, Initial residual = 0, Final residual = 0, No Iterations 0
diagonal:  Solving for rhoUz, Initial residual = 0, Final residual = 0, No Iterations 0
smoothSolver:  Solving for Ux, Initial residual = 5.93697832e-06, Final residual = 1.23291313e-15, No Iterations 2
smoothSolver:  Solving for Uy, Initial residual = 1.165579192e-05, Final residual = 1.593849549e-15, No Iterations 2
smoothSolver:  Solving for Uz, Initial residual = 5.983570972e-05, Final residual = 2.940351409e-14, No Iterations 2
diagonal:  Solving for rhoEv, Initial residual = 0, Final residual = 0, No Iterations 0
diagonal:  Solving for rhoE, Initial residual = 0, Final residual = 0, No Iterations 0
Q_mag is working. max(Q_mag) = max(Rp) [1 -1 -3 0 0 0 0] 0
smoothSolver:  Solving for hevel, Initial residual = 1.025218117e-05, Final residual = 4.429406557e-15, No Iterations 2
Q_mag is working
smoothSolver:  Solving for e, Initial residual = 8.276667451e-06, Final residual = 2.517539346e-14, No Iterations 2
Phase no 1.0  ExecutionTime = 38.47 s  ClockTime = 38 s  Iteration no 48 (0.77 s)

Mean and max Courant Numbers = 0.002466706285 0.3002022365
deltaT = 3.794110106e-08
Time = 8.482355958e-07

diagonal:  Solving for rho, Initial residual = 0, Final residual = 0, No Iterations 0
diagonal:  Solving for rhoUx, Initial residual = 0, Final residual = 0, No Iterations 0
diagonal:  Solving for rhoUy, Initial residual = 0, Final residual = 0, No Iterations 0
diagonal:  Solving for rhoUz, Initial residual = 0, Final residual = 0, No Iterations 0
smoothSolver:  Solving for Ux, Initial residual = 5.809023832e-06, Final residual = 1.218047883e-15, No Iterations 2
smoothSolver:  Solving for Uy, Initial residual = 1.038040218e-05, Final residual = 1.414620475e-15, No Iterations 2
smoothSolver:  Solving for Uz, Initial residual = 5.846355038e-05, Final residual = 2.843657179e-14, No Iterations 2
diagonal:  Solving for rhoEv, Initial residual = 0, Final residual = 0, No Iterations 0
diagonal:  Solving for rhoE, Initial residual = 0, Final residual = 0, No Iterations 0
Q_mag is working. max(Q_mag) = max(Rp) [1 -1 -3 0 0 0 0] 0
smoothSolver:  Solving for hevel, Initial residual = 1.000036441e-05, Final residual = 4.267420644e-15, No Iterations 2
Q_mag is working
smoothSolver:  Solving for e, Initial residual = 7.802231576e-06, Final residual = 2.399085335e-14, No Iterations 2
Phase no 1.0  ExecutionTime = 39.25 s  ClockTime = 39 s  Iteration no 49 (0.78 s)

Mean and max Courant Numbers = 0.002476289939 0.2983816608
deltaT = 3.794110106e-08
Time = 8.861766968e-07

diagonal:  Solving for rho, Initial residual = 0, Final residual = 0, No Iterations 0
diagonal:  Solving for rhoUx, Initial residual = 0, Final residual = 0, No Iterations 0
diagonal:  Solving for rhoUy, Initial residual = 0, Final residual = 0, No Iterations 0
diagonal:  Solving for rhoUz, Initial residual = 0, Final residual = 0, No Iterations 0
smoothSolver:  Solving for Ux, Initial residual = 5.678504286e-06, Final residual = 1.208881275e-15, No Iterations 2
smoothSolver:  Solving for Uy, Initial residual = 9.263901493e-06, Final residual = 1.263643156e-15, No Iterations 2
smoothSolver:  Solving for Uz, Initial residual = 5.748384096e-05, Final residual = 2.76329065e-14, No Iterations 2
diagonal:  Solving for rhoEv, Initial residual = 0, Final residual = 0, No Iterations 0
diagonal:  Solving for rhoE, Initial residual = 0, Final residual = 0, No Iterations 0
Q_mag is working. max(Q_mag) = max(Rp) [1 -1 -3 0 0 0 0] 0
smoothSolver:  Solving for hevel, Initial residual = 9.717175732e-06, Final residual = 4.10579916e-15, No Iterations 2
Q_mag is working
smoothSolver:  Solving for e, Initial residual = 7.402468326e-06, Final residual = 2.286748893e-14, No Iterations 2
Phase no 1.0  ExecutionTime = 40.01 s  ClockTime = 40 s  Iteration no 50 (0.76 s)

Mean and max Courant Numbers = 0.002485830742 0.2963984072
deltaT = 3.794110106e-08
Time = 9.241177979e-07

diagonal:  Solving for rho, Initial residual = 0, Final residual = 0, No Iterations 0
diagonal:  Solving for rhoUx, Initial residual = 0, Final residual = 0, No Iterations 0
diagonal:  Solving for rhoUy, Initial residual = 0, Final residual = 0, No Iterations 0
diagonal:  Solving for rhoUz, Initial residual = 0, Final residual = 0, No Iterations 0
smoothSolver:  Solving for Ux, Initial residual = 5.546592322e-06, Final residual = 1.194014708e-15, No Iterations 2
smoothSolver:  Solving for Uy, Initial residual = 8.284401456e-06, Final residual = 1.134143734e-15, No Iterations 2
smoothSolver:  Solving for Uz, Initial residual = 5.741411528e-05, Final residual = 2.795515678e-14, No Iterations 2
diagonal:  Solving for rhoEv, Initial residual = 0, Final residual = 0, No Iterations 0
diagonal:  Solving for rhoE, Initial residual = 0, Final residual = 0, No Iterations 0
Q_mag is working. max(Q_mag) = max(Rp) [1 -1 -3 0 0 0 0] 0
smoothSolver:  Solving for hevel, Initial residual = 9.403096349e-06, Final residual = 3.937800863e-15, No Iterations 2
Q_mag is working
smoothSolver:  Solving for e, Initial residual = 7.079485352e-06, Final residual = 2.180117364e-14, No Iterations 2
Phase no 1.0  ExecutionTime = 40.78 s  ClockTime = 40 s  Iteration no 51 (0.77 s)

Mean and max Courant Numbers = 0.002495333094 0.2942841366
deltaT = 3.794110106e-08
Time = 9.620588989e-07

diagonal:  Solving for rho, Initial residual = 0, Final residual = 0, No Iterations 0
diagonal:  Solving for rhoUx, Initial residual = 0, Final residual = 0, No Iterations 0
diagonal:  Solving for rhoUy, Initial residual = 0, Final residual = 0, No Iterations 0
diagonal:  Solving for rhoUz, Initial residual = 0, Final residual = 0, No Iterations 0
smoothSolver:  Solving for Ux, Initial residual = 5.41429469e-06, Final residual = 1.181910041e-15, No Iterations 2
smoothSolver:  Solving for Uy, Initial residual = 7.423721709e-06, Final residual = 1.018150062e-15, No Iterations 2
smoothSolver:  Solving for Uz, Initial residual = 5.554188834e-05, Final residual = 2.700361053e-14, No Iterations 2
diagonal:  Solving for rhoEv, Initial residual = 0, Final residual = 0, No Iterations 0
diagonal:  Solving for rhoE, Initial residual = 0, Final residual = 0, No Iterations 0
Q_mag is working. max(Q_mag) = max(Rp) [1 -1 -3 0 0 0 0] 0
smoothSolver:  Solving for hevel, Initial residual = 9.059009629e-06, Final residual = 3.76505044e-15, No Iterations 2
Q_mag is working
smoothSolver:  Solving for e, Initial residual = 6.845258844e-06, Final residual = 2.078198814e-14, No Iterations 2
Phase no 1.0  ExecutionTime = 41.55 s  ClockTime = 41 s  Iteration no 52 (0.77 s)

Mean and max Courant Numbers = 0.002504791986 0.2920532512
deltaT = 3.794110106e-08
Time = 1e-06

diagonal:  Solving for rho, Initial residual = 0, Final residual = 0, No Iterations 0
diagonal:  Solving for rhoUx, Initial residual = 0, Final residual = 0, No Iterations 0
diagonal:  Solving for rhoUy, Initial residual = 0, Final residual = 0, No Iterations 0
diagonal:  Solving for rhoUz, Initial residual = 0, Final residual = 0, No Iterations 0
smoothSolver:  Solving for Ux, Initial residual = 5.282382296e-06, Final residual = 1.169125124e-15, No Iterations 2
smoothSolver:  Solving for Uy, Initial residual = 6.666576352e-06, Final residual = 9.219045657e-16, No Iterations 2
smoothSolver:  Solving for Uz, Initial residual = 5.474458963e-05, Final residual = 2.518607684e-14, No Iterations 2
diagonal:  Solving for rhoEv, Initial residual = 0, Final residual = 0, No Iterations 0
diagonal:  Solving for rhoE, Initial residual = 0, Final residual = 0, No Iterations 0
Q_mag is working. max(Q_mag) = max(Rp) [1 -1 -3 0 0 0 0] 0
smoothSolver:  Solving for hevel, Initial residual = 8.686346748e-06, Final residual = 3.590944887e-15, No Iterations 2
Q_mag is working
smoothSolver:  Solving for e, Initial residual = 6.659917264e-06, Final residual = 1.980732357e-14, No Iterations 2

Wall heat fluxes [W]
Patch 1 named object: -49.17442792

Phase no 1.0  ExecutionTime = 42.58 s  ClockTime = 42 s  Iteration no 53 (1.03 s)

Mean and max Courant Numbers = 0.002514202732 0.2897179007
deltaT = 4e-08
Time = 1.04e-06

diagonal:  Solving for rho, Initial residual = 0, Final residual = 0, No Iterations 0
diagonal:  Solving for rhoUx, Initial residual = 0, Final residual = 0, No Iterations 0
diagonal:  Solving for rhoUy, Initial residual = 0, Final residual = 0, No Iterations 0
diagonal:  Solving for rhoUz, Initial residual = 0, Final residual = 0, No Iterations 0
smoothSolver:  Solving for Ux, Initial residual = 5.421137326e-06, Final residual = 1.349177546e-15, No Iterations 2
smoothSolver:  Solving for Uy, Initial residual = 6.299800622e-06, Final residual = 9.672776045e-16, No Iterations 2
smoothSolver:  Solving for Uz, Initial residual = 5.746777251e-05, Final residual = 2.929125211e-14, No Iterations 2
diagonal:  Solving for rhoEv, Initial residual = 0, Final residual = 0, No Iterations 0
diagonal:  Solving for rhoE, Initial residual = 0, Final residual = 0, No Iterations 0
Q_mag is working. max(Q_mag) = max(Rp) [1 -1 -3 0 0 0 0] 0
smoothSolver:  Solving for hevel, Initial residual = 8.711460826e-06, Final residual = 3.986981397e-15, No Iterations 2
Q_mag is working
smoothSolver:  Solving for e, Initial residual = 6.839786064e-06, Final residual = 2.200294196e-14, No Iterations 2
Phase no 1.0  ExecutionTime = 43.35 s  ClockTime = 43 s  Iteration no 54 (0.77 s)

Mean and max Courant Numbers = 0.002661032339 0.303340568
deltaT = 4e-08
Time = 1.08e-06

diagonal:  Solving for rho, Initial residual = 0, Final residual = 0, No Iterations 0
diagonal:  Solving for rhoUx, Initial residual = 0, Final residual = 0, No Iterations 0
diagonal:  Solving for rhoUy, Initial residual = 0, Final residual = 0, No Iterations 0
diagonal:  Solving for rhoUz, Initial residual = 0, Final residual = 0, No Iterations 0
smoothSolver:  Solving for Ux, Initial residual = 5.274770809e-06, Final residual = 1.330786845e-15, No Iterations 2
smoothSolver:  Solving for Uy, Initial residual = 5.655448664e-06, Final residual = 8.767483783e-16, No Iterations 2
smoothSolver:  Solving for Uz, Initial residual = 5.595574212e-05, Final residual = 2.74401656e-14, No Iterations 2
diagonal:  Solving for rhoEv, Initial residual = 0, Final residual = 0, No Iterations 0
diagonal:  Solving for rhoE, Initial residual = 0, Final residual = 0, No Iterations 0
Q_mag is working. max(Q_mag) = max(Rp) [1 -1 -3 0 0 0 0] 0
smoothSolver:  Solving for hevel, Initial residual = 8.241354342e-06, Final residual = 3.776014447e-15, No Iterations 2
Q_mag is working
smoothSolver:  Solving for e, Initial residual = 6.687655721e-06, Final residual = 2.090812061e-14, No Iterations 2
Phase no 1.0  ExecutionTime = 44.11 s  ClockTime = 44 s  Iteration no 55 (0.76 s)

Mean and max Courant Numbers = 0.002671369808 0.3068702977
deltaT = 3.833333333e-08
Time = 1.118333333e-06

diagonal:  Solving for rho, Initial residual = 0, Final residual = 0, No Iterations 0
diagonal:  Solving for rhoUx, Initial residual = 0, Final residual = 0, No Iterations 0
diagonal:  Solving for rhoUy, Initial residual = 0, Final residual = 0, No Iterations 0
diagonal:  Solving for rhoUz, Initial residual = 0, Final residual = 0, No Iterations 0
smoothSolver:  Solving for Ux, Initial residual = 4.925992952e-06, Final residual = 1.151563423e-15, No Iterations 2
smoothSolver:  Solving for Uy, Initial residual = 4.891606726e-06, Final residual = 7.027612443e-16, No Iterations 2
smoothSolver:  Solving for Uz, Initial residual = 5.350675528e-05, Final residual = 2.391898016e-14, No Iterations 2
diagonal:  Solving for rhoEv, Initial residual = 0, Final residual = 0, No Iterations 0
diagonal:  Solving for rhoE, Initial residual = 0, Final residual = 0, No Iterations 0
Q_mag is working. max(Q_mag) = max(Rp) [1 -1 -3 0 0 0 0] 0
smoothSolver:  Solving for hevel, Initial residual = 7.464750729e-06, Final residual = 3.152227484e-15, No Iterations 2
Q_mag is working
[...]
Phase no 1.0  ExecutionTime = 68881.63 s  ClockTime = 69173 s  Iteration no 84404 (0.79 s)

Mean and max Courant Numbers = 0.01724203339 0.2998890888
deltaT = 1.572327044e-08
Time = 0.001417059748

diagonal:  Solving for rho, Initial residual = 0, Final residual = 0, No Iterations 0
diagonal:  Solving for rhoUx, Initial residual = 0, Final residual = 0, No Iterations 0
diagonal:  Solving for rhoUy, Initial residual = 0, Final residual = 0, No Iterations 0
diagonal:  Solving for rhoUz, Initial residual = 0, Final residual = 0, No Iterations 0
smoothSolver:  Solving for Ux, Initial residual = 7.115537008e-08, Final residual = 8.74471384e-17, No Iterations 2
smoothSolver:  Solving for Uy, Initial residual = 9.106646351e-08, Final residual = 7.254459375e-17, No Iterations 2
smoothSolver:  Solving for Uz, Initial residual = 8.143750598e-06, Final residual = 3.259187859e-15, No Iterations 2
diagonal:  Solving for rhoEv, Initial residual = 0, Final residual = 0, No Iterations 0
diagonal:  Solving for rhoE, Initial residual = 0, Final residual = 0, No Iterations 0
Q_mag is working. max(Q_mag) = max(Rp) [1 -1 -3 0 0 0 0] 0
smoothSolver:  Solving for hevel, Initial residual = 8.836320805e-08, Final residual = 9.680609406e-17, No Iterations 2
Q_mag is working
smoothSolver:  Solving for e, Initial residual = 1.131267956e-07, Final residual = 4.462141376e-16, No Iterations 2
Phase no 1.0  ExecutionTime = 68882.39 s  ClockTime = 69174 s  Iteration no 84405 (0.76 s)

Mean and max Courant Numbers = 0.01724203375 0.2998891
deltaT = 1.572327044e-08
Time = 0.001417075472

diagonal:  Solving for rho, Initial residual = 0, Final residual = 0, No Iterations 0
diagonal:  Solving for rhoUx, Initial residual = 0, Final residual = 0, No Iterations 0
diagonal:  Solving for rhoUy, Initial residual = 0, Final residual = 0, No Iterations 0
diagonal:  Solving for rhoUz, Initial residual = 0, Final residual = 0, No Iterations 0
smoothSolver:  Solving for Ux, Initial residual = 7.115538199e-08, Final residual = 8.724886529e-17, No Iterations 2
smoothSolver:  Solving for Uy, Initial residual = 9.106647793e-08, Final residual = 7.255295914e-17, No Iterations 2
smoothSolver:  Solving for Uz, Initial residual = 8.141328553e-06, Final residual = 3.253118439e-15, No Iterations 2
diagonal:  Solving for rhoEv, Initial residual = 0, Final residual = 0, No Iterations 0
diagonal:  Solving for rhoE, Initial residual = 0, Final residual = 0, No Iterations 0
Q_mag is working. max(Q_mag) = max(Rp) [1 -1 -3 0 0 0 0] 0
smoothSolver:  Solving for hevel, Initial residual = 8.836322266e-08, Final residual = 9.654773735e-17, No Iterations 2
Q_mag is working
smoothSolver:  Solving for e, Initial residual = 1.131268303e-07, Final residual = 4.465207773e-16, No Iterations 2
Phase no 1.0  ExecutionTime = 68883.19 s  ClockTime = 69175 s  Iteration no 84406 (0.8 s)

Mean and max Courant Numbers = 0.0172420341 0.2998891112
deltaT = 1.572327044e-08
Time = 0.001417091195

diagonal:  Solving for rho, Initial residual = 0, Final residual = 0, No Iterations 0
diagonal:  Solving for rhoUx, Initial residual = 0, Final residual = 0, No Iterations 0
diagonal:  Solving for rhoUy, Initial residual = 0, Final residual = 0, No Iterations 0
diagonal:  Solving for rhoUz, Initial residual = 0, Final residual = 0, No Iterations 0
smoothSolver:  Solving for Ux, Initial residual = 7.115539389e-08, Final residual = 8.748582421e-17, No Iterations 2
smoothSolver:  Solving for Uy, Initial residual = 9.106649236e-08, Final residual = 7.244560069e-17, No Iterations 2
smoothSolver:  Solving for Uz, Initial residual = 8.141576254e-06, Final residual = 3.257877102e-15, No Iterations 2
diagonal:  Solving for rhoEv, Initial residual = 0, Final residual = 0, No Iterations 0
diagonal:  Solving for rhoE, Initial residual = 0, Final residual = 0, No Iterations 0
Q_mag is working. max(Q_mag) = max(Rp) [1 -1 -3 0 0 0 0] 0
smoothSolver:  Solving for hevel, Initial residual = 8.836323726e-08, Final residual = 9.712917917e-17, No Iterations 2
Q_mag is working
smoothSolver:  Solving for e, Initial residual = 1.131268651e-07, Final residual = 4.460056672e-16, No Iterations 2
Phase no 1.0  ExecutionTime = 68884.01 s  ClockTime = 69176 s  Iteration no 84407 (0.82 s)

Mean and max Courant Numbers = 0.01724203446 0.2998891224
deltaT = 1.572327044e-08
Time = 0.001417106918

diagonal:  Solving for rho, Initial residual = 0, Final residual = 0, No Iterations 0
diagonal:  Solving for rhoUx, Initial residual = 0, Final residual = 0, No Iterations 0
diagonal:  Solving for rhoUy, Initial residual = 0, Final residual = 0, No Iterations 0
diagonal:  Solving for rhoUz, Initial residual = 0, Final residual = 0, No Iterations 0
smoothSolver:  Solving for Ux, Initial residual = 7.115540579e-08, Final residual = 8.738681149e-17, No Iterations 2
smoothSolver:  Solving for Uy, Initial residual = 9.106650677e-08, Final residual = 7.223524808e-17, No Iterations 2
smoothSolver:  Solving for Uz, Initial residual = 8.13871057e-06, Final residual = 3.260298927e-15, No Iterations 2
diagonal:  Solving for rhoEv, Initial residual = 0, Final residual = 0, No Iterations 0
diagonal:  Solving for rhoE, Initial residual = 0, Final residual = 0, No Iterations 0
Q_mag is working. max(Q_mag) = max(Rp) [1 -1 -3 0 0 0 0] 0
smoothSolver:  Solving for hevel, Initial residual = 8.836325186e-08, Final residual = 9.643803769e-17, No Iterations 2
Q_mag is working
smoothSolver:  Solving for e, Initial residual = 1.131268998e-07, Final residual = 4.465435787e-16, No Iterations 2
Phase no 1.0  ExecutionTime = 68885.03 s  ClockTime = 69177 s  Iteration no 84408 (1.02 s)

Mean and max Courant Numbers = 0.01724203481 0.2998891336
deltaT = 1.572327044e-08
Time = 0.001417122642

diagonal:  Solving for rho, Initial residual = 0, Final residual = 0, No Iterations 0
diagonal:  Solving for rhoUx, Initial residual = 0, Final residual = 0, No Iterations 0
diagonal:  Solving for rhoUy, Initial residual = 0, Final residual = 0, No Iterations 0
diagonal:  Solving for rhoUz, Initial residual = 0, Final residual = 0, No Iterations 0
smoothSolver:  Solving for Ux, Initial residual = 7.115541769e-08, Final residual = 8.714570904e-17, No Iterations 2
smoothSolver:  Solving for Uy, Initial residual = 9.106652118e-08, Final residual = 7.278108879e-17, No Iterations 2
smoothSolver:  Solving for Uz, Initial residual = 8.152170435e-06, Final residual = 3.263807732e-15, No Iterations 2
diagonal:  Solving for rhoEv, Initial residual = 0, Final residual = 0, No Iterations 0
diagonal:  Solving for rhoE, Initial residual = 0, Final residual = 0, No Iterations 0
Q_mag is working. max(Q_mag) = max(Rp) [1 -1 -3 0 0 0 0] 0
smoothSolver:  Solving for hevel, Initial residual = 8.836326646e-08, Final residual = 9.686124617e-17, No Iterations 2
Q_mag is working
smoothSolver:  Solving for e, Initial residual = 1.131269345e-07, Final residual = 4.466370103e-16, No Iterations 2
Phase no 1.0  ExecutionTime = 68885.85 s  ClockTime = 69177 s  Iteration no 84409 (0.82 s)

Mean and max Courant Numbers = 0.01724203516 0.2998891448
deltaT = 1.572327044e-08
Time = 0.001417138365

diagonal:  Solving for rho, Initial residual = 0, Final residual = 0, No Iterations 0
diagonal:  Solving for rhoUx, Initial residual = 0, Final residual = 0, No Iterations 0
diagonal:  Solving for rhoUy, Initial residual = 0, Final residual = 0, No Iterations 0
diagonal:  Solving for rhoUz, Initial residual = 0, Final residual = 0, No Iterations 0
smoothSolver:  Solving for Ux, Initial residual = 7.115542958e-08, Final residual = 8.741343953e-17, No Iterations 2
smoothSolver:  Solving for Uy, Initial residual = 9.106653558e-08, Final residual = 7.223865013e-17, No Iterations 2
smoothSolver:  Solving for Uz, Initial residual = 8.138517729e-06, Final residual = 3.258459792e-15, No Iterations 2
diagonal:  Solving for rhoEv, Initial residual = 0, Final residual = 0, No Iterations 0
diagonal:  Solving for rhoE, Initial residual = 0, Final residual = 0, No Iterations 0
Q_mag is working. max(Q_mag) = max(Rp) [1 -1 -3 0 0 0 0] 0
smoothSolver:  Solving for hevel, Initial residual = 8.836328105e-08, Final residual = 9.701286793e-17, No Iterations 2
Q_mag is working
smoothSolver:  Solving for e, Initial residual = 1.131269692e-07, Final residual = 4.465933408e-16, No Iterations 2
Phase no 1.0  ExecutionTime = 68886.92 s  ClockTime = 69179 s  Iteration no 84410 (1.07 s)

Mean and max Courant Numbers = 0.01724203552 0.299889156
deltaT = 1.572327044e-08
Time = 0.001417154088

diagonal:  Solving for rho, Initial residual = 0, Final residual = 0, No Iterations 0
diagonal:  Solving for rhoUx, Initial residual = 0, Final residual = 0, No Iterations 0
diagonal:  Solving for rhoUy, Initial residual = 0, Final residual = 0, No Iterations 0
diagonal:  Solving for rhoUz, Initial residual = 0, Final residual = 0, No Iterations 0
smoothSolver:  Solving for Ux, Initial residual = 7.115544147e-08, Final residual = 8.747808052e-17, No Iterations 2
smoothSolver:  Solving for Uy, Initial residual = 9.106654998e-08, Final residual = 7.231263524e-17, No Iterations 2
smoothSolver:  Solving for Uz, Initial residual = 8.140301305e-06, Final residual = 3.25571599e-15, No Iterations 2
diagonal:  Solving for rhoEv, Initial residual = 0, Final residual = 0, No Iterations 0
diagonal:  Solving for rhoE, Initial residual = 0, Final residual = 0, No Iterations 0
Q_mag is working. max(Q_mag) = max(Rp) [1 -1 -3 0 0 0 0] 0
smoothSolver:  Solving for hevel, Initial residual = 8.836329563e-08, Final residual = 9.72599873e-17, No Iterations 2
Q_mag is working
smoothSolver:  Solving for e, Initial residual = 1.13127004e-07, Final residual = 4.46278543e-16, No Iterations 2
Phase no 1.0  ExecutionTime = 68887.81 s  ClockTime = 69179 s  Iteration no 84411 (0.89 s)

Mean and max Courant Numbers = 0.01724203587 0.2998891672
deltaT = 1.572327044e-08
Time = 0.001417169811

diagonal:  Solving for rho, Initial residual = 0, Final residual = 0, No Iterations 0
diagonal:  Solving for rhoUx, Initial residual = 0, Final residual = 0, No Iterations 0
diagonal:  Solving for rhoUy, Initial residual = 0, Final residual = 0, No Iterations 0
diagonal:  Solving for rhoUz, Initial residual = 0, Final residual = 0, No Iterations 0
smoothSolver:  Solving for Ux, Initial residual = 7.115545335e-08, Final residual = 8.710896517e-17, No Iterations 2
smoothSolver:  Solving for Uy, Initial residual = 9.106656438e-08, Final residual = 7.220698348e-17, No Iterations 2
smoothSolver:  Solving for Uz, Initial residual = 8.150819909e-06, Final residual = 3.253321393e-15, No Iterations 2
diagonal:  Solving for rhoEv, Initial residual = 0, Final residual = 0, No Iterations 0
diagonal:  Solving for rhoE, Initial residual = 0, Final residual = 0, No Iterations 0
Q_mag is working. max(Q_mag) = max(Rp) [1 -1 -3 0 0 0 0] 0
smoothSolver:  Solving for hevel, Initial residual = 8.836331021e-08, Final residual = 9.681947726e-17, No Iterations 2
Q_mag is working
smoothSolver:  Solving for e, Initial residual = 1.131270387e-07, Final residual = 4.462098158e-16, No Iterations 2
Phase no 1.0  ExecutionTime = 68888.65 s  ClockTime = 69180 s  Iteration no 84412 (0.84 s)

Mean and max Courant Numbers = 0.01724203623 0.2998891784
deltaT = 1.572327044e-08
Time = 0.001417185535

diagonal:  Solving for rho, Initial residual = 0, Final residual = 0, No Iterations 0
diagonal:  Solving for rhoUx, Initial residual = 0, Final residual = 0, No Iterations 0
diagonal:  Solving for rhoUy, Initial residual = 0, Final residual = 0, No Iterations 0
diagonal:  Solving for rhoUz, Initial residual = 0, Final residual = 0, No Iterations 0
smoothSolver:  Solving for Ux, Initial residual = 7.115546523e-08, Final residual = 8.743708256e-17, No Iterations 2
smoothSolver:  Solving for Uy, Initial residual = 9.106657877e-08, Final residual = 7.190098753e-17, No Iterations 2
smoothSolver:  Solving for Uz, Initial residual = 8.127939053e-06, Final residual = 3.251237101e-15, No Iterations 2
diagonal:  Solving for rhoEv, Initial residual = 0, Final residual = 0, No Iterations 0
diagonal:  Solving for rhoE, Initial residual = 0, Final residual = 0, No Iterations 0
Q_mag is working. max(Q_mag) = max(Rp) [1 -1 -3 0 0 0 0] 0
smoothSolver:  Solving for hevel, Initial residual = 8.836332479e-08, Final residual = 9.680449707e-17, No Iterations 2
Q_mag is working
smoothSolver:  Solving for e, Initial residual = 1.131270733e-07, Final residual = 4.465463973e-16, No Iterations 2
Phase no 1.0  ExecutionTime = 68889.43 s  ClockTime = 69181 s  Iteration no 84413 (0.78 s)

Mean and max Courant Numbers = 0.01724203658 0.2998891896
deltaT = 1.572327044e-08
Time = 0.001417201258

diagonal:  Solving for rho, Initial residual = 0, Final residual = 0, No Iterations 0
diagonal:  Solving for rhoUx, Initial residual = 0, Final residual = 0, No Iterations 0
diagonal:  Solving for rhoUy, Initial residual = 0, Final residual = 0, No Iterations 0
diagonal:  Solving for rhoUz, Initial residual = 0, Final residual = 0, No Iterations 0
smoothSolver:  Solving for Ux, Initial residual = 7.115547712e-08, Final residual = 8.771481646e-17, No Iterations 2
smoothSolver:  Solving for Uy, Initial residual = 9.106659316e-08, Final residual = 7.231723169e-17, No Iterations 2
smoothSolver:  Solving for Uz, Initial residual = 8.138818214e-06, Final residual = 3.2610591e-15, No Iterations 2
diagonal:  Solving for rhoEv, Initial residual = 0, Final residual = 0, No Iterations 0
diagonal:  Solving for rhoE, Initial residual = 0, Final residual = 0, No Iterations 0
Q_mag is working. max(Q_mag) = max(Rp) [1 -1 -3 0 0 0 0] 0
smoothSolver:  Solving for hevel, Initial residual = 8.836333935e-08, Final residual = 9.693428986e-17, No Iterations 2
Q_mag is working
smoothSolver:  Solving for e, Initial residual = 1.13127108e-07, Final residual = 4.469567513e-16, No Iterations 2
Phase no 1.0  ExecutionTime = 68890.23 s  ClockTime = 69182 s  Iteration no 84414 (0.8 s)

Mean and max Courant Numbers = 0.01724203693 0.2998892008
deltaT = 1.572327044e-08
Time = 0.001417216981

diagonal:  Solving for rho, Initial residual = 0, Final residual = 0, No Iterations 0
diagonal:  Solving for rhoUx, Initial residual = 0, Final residual = 0, No Iterations 0
diagonal:  Solving for rhoUy, Initial residual = 0, Final residual = 0, No Iterations 0
diagonal:  Solving for rhoUz, Initial residual = 0, Final residual = 0, No Iterations 0
smoothSolver:  Solving for Ux, Initial residual = 7.115548898e-08, Final residual = 8.732255172e-17, No Iterations 2
smoothSolver:  Solving for Uy, Initial residual = 9.106660754e-08, Final residual = 7.236936964e-17, No Iterations 2
smoothSolver:  Solving for Uz, Initial residual = 8.129004021e-06, Final residual = 3.249705065e-15, No Iterations 2
diagonal:  Solving for rhoEv, Initial residual = 0, Final residual = 0, No Iterations 0
diagonal:  Solving for rhoE, Initial residual = 0, Final residual = 0, No Iterations 0
Q_mag is working. max(Q_mag) = max(Rp) [1 -1 -3 0 0 0 0] 0
smoothSolver:  Solving for hevel, Initial residual = 8.836335392e-08, Final residual = 9.651169376e-17, No Iterations 2
Q_mag is working
smoothSolver:  Solving for e, Initial residual = 1.131271427e-07, Final residual = 4.465592154e-16, No Iterations 2
Phase no 1.0  ExecutionTime = 68891.02 s  ClockTime = 69183 s  Iteration no 84415 (0.79 s)

Mean and max Courant Numbers = 0.01724203729 0.299889212
deltaT = 1.572327044e-08
Time = 0.001417232704

diagonal:  Solving for rho, Initial residual = 0, Final residual = 0, No Iterations 0
diagonal:  Solving for rhoUx, Initial residual = 0, Final residual = 0, No Iterations 0
diagonal:  Solving for rhoUy, Initial residual = 0, Final residual = 0, No Iterations 0
diagonal:  Solving for rhoUz, Initial residual = 0, Final residual = 0, No Iterations 0
smoothSolver:  Solving for Ux, Initial residual = 7.115550085e-08, Final residual = 8.742956782e-17, No Iterations 2
smoothSolver:  Solving for Uy, Initial residual = 9.106662192e-08, Final residual = 7.269876341e-17, No Iterations 2
smoothSolver:  Solving for Uz, Initial residual = 8.142390045e-06, Final residual = 3.26157881e-15, No Iterations 2
diagonal:  Solving for rhoEv, Initial residual = 0, Final residual = 0, No Iterations 0
diagonal:  Solving for rhoE, Initial residual = 0, Final residual = 0, No Iterations 0
Q_mag is working. max(Q_mag) = max(Rp) [1 -1 -3 0 0 0 0] 0
smoothSolver:  Solving for hevel, Initial residual = 8.836336848e-08, Final residual = 9.667240657e-17, No Iterations 2
Q_mag is working
smoothSolver:  Solving for e, Initial residual = 1.131271774e-07, Final residual = 4.467033191e-16, No Iterations 2
Phase no 1.0  ExecutionTime = 68891.8 s  ClockTime = 69183 s  Iteration no 84416 (0.78 s)

Mean and max Courant Numbers = 0.01724203764 0.2998892232
deltaT = 1.572327044e-08
Time = 0.001417248428

diagonal:  Solving for rho, Initial residual = 0, Final residual = 0, No Iterations 0
diagonal:  Solving for rhoUx, Initial residual = 0, Final residual = 0, No Iterations 0
diagonal:  Solving for rhoUy, Initial residual = 0, Final residual = 0, No Iterations 0
diagonal:  Solving for rhoUz, Initial residual = 0, Final residual = 0, No Iterations 0
smoothSolver:  Solving for Ux, Initial residual = 7.115551272e-08, Final residual = 8.763198566e-17, No Iterations 2
smoothSolver:  Solving for Uy, Initial residual = 9.106663629e-08, Final residual = 7.195171384e-17, No Iterations 2
smoothSolver:  Solving for Uz, Initial residual = 8.146709275e-06, Final residual = 3.261350448e-15, No Iterations 2
diagonal:  Solving for rhoEv, Initial residual = 0, Final residual = 0, No Iterations 0
diagonal:  Solving for rhoE, Initial residual = 0, Final residual = 0, No Iterations 0
Q_mag is working. max(Q_mag) = max(Rp) [1 -1 -3 0 0 0 0] 0
smoothSolver:  Solving for hevel, Initial residual = 8.836338304e-08, Final residual = 9.678401586e-17, No Iterations 2
Q_mag is working
smoothSolver:  Solving for e, Initial residual = 1.131272121e-07, Final residual = 4.467071471e-16, No Iterations 2
Phase no 1.0  ExecutionTime = 68892.6 s  ClockTime = 69184 s  Iteration no 84417 (0.8 s)

Mean and max Courant Numbers = 0.017242038 0.2998892344
deltaT = 1.572327044e-08
Time = 0.001417264151

diagonal:  Solving for rho, Initial residual = 0, Final residual = 0, No Iterations 0
diagonal:  Solving for rhoUx, Initial residual = 0, Final residual = 0, No Iterations 0
diagonal:  Solving for rhoUy, Initial residual = 0, Final residual = 0, No Iterations 0
diagonal:  Solving for rhoUz, Initial residual = 0, Final residual = 0, No Iterations 0
smoothSolver:  Solving for Ux, Initial residual = 7.115552458e-08, Final residual = 8.737671613e-17, No Iterations 2
smoothSolver:  Solving for Uy, Initial residual = 9.106665066e-08, Final residual = 7.280327674e-17, No Iterations 2
smoothSolver:  Solving for Uz, Initial residual = 8.151553398e-06, Final residual = 3.261923955e-15, No Iterations 2
diagonal:  Solving for rhoEv, Initial residual = 0, Final residual = 0, No Iterations 0
diagonal:  Solving for rhoE, Initial residual = 0, Final residual = 0, No Iterations 0
Q_mag is working. max(Q_mag) = max(Rp) [1 -1 -3 0 0 0 0] 0
smoothSolver:  Solving for hevel, Initial residual = 8.836339759e-08, Final residual = 9.742315165e-17, No Iterations 2
Q_mag is working
smoothSolver:  Solving for e, Initial residual = 1.131272467e-07, Final residual = 4.465961123e-16, No Iterations 2
Phase no 1.0  ExecutionTime = 68893.38 s  ClockTime = 69185 s  Iteration no 84418 (0.78 s)

Mean and max Courant Numbers = 0.01724203835 0.2998892456
deltaT = 1.572327044e-08
Time = 0.001417279874

diagonal:  Solving for rho, Initial residual = 0, Final residual = 0, No Iterations 0
--------------------------------------------------------------------------
mpirun noticed that process rank 0 with PID 0 on node Galileo exited on signal 15 (Terminated).
--------------------------------------------------------------------------
