/*---------------------------------------------------------------------------*\
| =========                 |                                                 |
| \\      /  F ield         | OpenFOAM: The Open Source CFD Toolbox           |
|  \\    /   O peration     | Version:  v1706                                 |
|   \\  /    A nd           | Web:      www.OpenFOAM.com                      |
|    \\/     M anipulation  |                                                 |
\*---------------------------------------------------------------------------*/
Build  : v1706
Arch   : "LSB;label=32;scalar=64"
Exec   : postProcess -func singleGraph -latestTime
Date   : Jan 14 2019
Time   : 11:13:12
Host   : "Galileo"
PID    : 25708
Case   : /home/vincent/OpenFOAM/vincent-v1706/hyStrath/run/hyStrath/dsmcFoam+/couette/couette_N2-O2
nProcs : 1
sigFpe : Enabling floating point exception trapping (FOAM_SIGFPE).
fileModificationChecking : Monitoring run-time modified files using timeStampMaster (fileModificationSkew 10)
allowSystemOperations : Allowing user-supplied system call operations

// * * * * * * * * * * * * * * * * * * * * * * * * * * * * * * * * * * * * * //
Create time

Create mesh for time = 8

Reading set description:
    line

Time = 8

Reading fields:
    volScalarFields: rotationalT_mixture vibrationalT_N2 vibrationalT_O2 rhoN_O2 translationalT_mixture rhoN_N2
    volVectorFields: UMean_mixture

Executing functionObjects

End

