/*---------------------------------------------------------------------------*\
| =========                 |                                                 |
| \\      /  F ield         | OpenFOAM: The Open Source CFD Toolbox           |
|  \\    /   O peration     | Version:  v1706                                 |
|   \\  /    A nd           | Web:      www.OpenFOAM.com                      |
|    \\/     M anipulation  |                                                 |
\*---------------------------------------------------------------------------*/
Build  : v1706
Arch   : "LSB;label=32;scalar=64"
Exec   : dsmcFoam+ -parallel
Date   : Jan 12 2019
Time   : 00:16:37
Host   : "Galileo"
PID    : 12260
Case   : /home/vincent/OpenFOAM/vincent-v1706/hyStrath/run/hyStrath/dsmcFoam+/threeDimensional/freeSpacePeriodic
nProcs : 2
Slaves : 1("Galileo.12261")
Pstream initialized with:
    floatTransfer      : 0
    nProcsSimpleSum    : 0
    commsType          : nonBlocking
    polling iterations : 0
sigFpe : Enabling floating point exception trapping (FOAM_SIGFPE).
fileModificationChecking : Monitoring run-time modified files using timeStampMaster (fileModificationSkew 10)
allowSystemOperations : Allowing user-supplied system call operations

// * * * * * * * * * * * * * * * * * * * * * * * * * * * * * * * * * * * * * //
Create time

Create mesh for time = 0

Selecting dynamicFvMesh dynamicRefineFvMesh

Constructing dsmcCloud 
Selecting the coordinate system model:	dsmcCartesian

Selecting the time-step model:	dsmcConstantTimeStepModel

Constant time-step model:
- time-step [sec]	1e-06

Selecting the porous measurement model:	dsmcNoPorousMediumMeasurements


Creating dsmcControllers

Creating fields: 

Selecting field: dsmcVolFields

TimeData Statistics: 
 measurement option: write
 nSamples: 1, time interval: 1e-06
 nAverages: 1000, time interval: 0.001
 total no. of sampling steps: 20000
 total no. of averaging Steps: 20


Selecting field: dsmcVolFields

TimeData Statistics: 
 measurement option: write
 nSamples: 1, time interval: 1e-06
 nAverages: 1000, time interval: 0.001
 total no. of sampling steps: 20000
 total no. of averaging Steps: 20


Selecting field: dsmcVolFields

TimeData Statistics: 
 measurement option: write
 nSamples: 1, time interval: 1e-06
 nAverages: 1000, time interval: 0.001
 total no. of sampling steps: 20000
 total no. of averaging Steps: 20


Creating the boundary models: 

Selecting BinaryCollisionModel LarsenBorgnakkeVariableHardSphere

Creating dsmcReactions

WARNING: there are no reactions.

Constructing constant properties for
	N2
	O2
pair addressing: 
2
(
2{-1}
2{-1}
)

Selecting collisionPartnerSelectionModel noTimeCounter

Initialising the measurement fields

Initialising dsmcVolFields field
Initialising dsmcVolFields field
Initialising dsmcVolFields field

Starting time loop

Time = 1e-05

    Collisions                      = 2135

    Number of DSMC particles        = 127861
    Number of stuck particles       = 0
    Number of free particles        = 127861
    Average linear kinetic energy   = 9.750239613e-20
    Average rotational energy       = 4.148241202e-21
    Average vibrational energy      = 4.018063925e-24
    Average electronic energy       = 0
    Total energy                    = 0.006498832947

Stage 1.0  ExecutionTime = 2.08 s  ClockTime = 2 s  Iteration 10 (0.16 s)

Time = 2e-05

    Collisions                      = 2266

    Number of DSMC particles        = 127861
    Number of stuck particles       = 0
    Number of free particles        = 127861
    Average linear kinetic energy   = 9.751251826e-20
    Average rotational energy       = 4.138119066e-21
    Average vibrational energy      = 4.018063925e-24
    Average electronic energy       = 0
    Total energy                    = 0.006498832947

Stage 1.0  ExecutionTime = 3.7 s  ClockTime = 4 s  Iteration 20 (0.18 s)

Time = 3e-05

    Collisions                      = 2186

    Number of DSMC particles        = 127861
    Number of stuck particles       = 0
    Number of free particles        = 127861
    Average linear kinetic energy   = 9.751321973e-20
    Average rotational energy       = 4.137417597e-21
    Average vibrational energy      = 4.018063925e-24
    Average electronic energy       = 0
    Total energy                    = 0.006498832947

Stage 1.0  ExecutionTime = 5.45 s  ClockTime = 5 s  Iteration 30 (0.18 s)

Time = 4e-05

    Collisions                      = 2224

    Number of DSMC particles        = 127861
    Number of stuck particles       = 0
    Number of free particles        = 127861
    Average linear kinetic energy   = 9.751600087e-20
    Average rotational energy       = 4.134636456e-21
    Average vibrational energy      = 4.018063925e-24
    Average electronic energy       = 0
    Total energy                    = 0.006498832947

Stage 1.0  ExecutionTime = 7.27 s  ClockTime = 7 s  Iteration 40 (0.2 s)

Time = 5e-05

    Collisions                      = 2246

    Number of DSMC particles        = 127861
    Number of stuck particles       = 0
    Number of free particles        = 127861
    Average linear kinetic energy   = 9.751128979e-20
    Average rotational energy       = 4.139347539e-21
    Average vibrational energy      = 4.018063925e-24
    Average electronic energy       = 0
    Total energy                    = 0.006498832947

Stage 1.0  ExecutionTime = 9.11 s  ClockTime = 9 s  Iteration 50 (0.21 s)

Time = 6e-05

    Collisions                      = 2231

    Number of DSMC particles        = 127861
    Number of stuck particles       = 0
    Number of free particles        = 127861
    Average linear kinetic energy   = 9.751170074e-20
    Average rotational energy       = 4.138936588e-21
    Average vibrational energy      = 4.018063925e-24
    Average electronic energy       = 0
    Total energy                    = 0.006498832947

Stage 1.0  ExecutionTime = 10.96 s  ClockTime = 11 s  Iteration 60 (0.2 s)

Time = 7e-05

    Collisions                      = 2243

    Number of DSMC particles        = 127861
    Number of stuck particles       = 0
    Number of free particles        = 127861
    Average linear kinetic energy   = 9.750431667e-20
    Average rotational energy       = 4.146320661e-21
    Average vibrational energy      = 4.018063925e-24
    Average electronic energy       = 0
    Total energy                    = 0.006498832947

Stage 1.0  ExecutionTime = 12.84 s  ClockTime = 13 s  Iteration 70 (0.19 s)

Time = 8e-05

    Collisions                      = 2234

    Number of DSMC particles        = 127861
    Number of stuck particles       = 0
    Number of free particles        = 127861
    Average linear kinetic energy   = 9.750605004e-20
    Average rotational energy       = 4.144587288e-21
    Average vibrational energy      = 4.018063925e-24
    Average electronic energy       = 0
    Total energy                    = 0.006498832947

Stage 1.0  ExecutionTime = 14.85 s  ClockTime = 15 s  Iteration 80 (0.2 s)

Time = 9e-05

    Collisions                      = 2286

    Number of DSMC particles        = 127861
    Number of stuck particles       = 0
    Number of free particles        = 127861
    Average linear kinetic energy   = 9.750341531e-20
    Average rotational energy       = 4.14722202e-21
    Average vibrational energy      = 4.018063925e-24
    Average electronic energy       = 0
    Total energy                    = 0.006498832947

Stage 1.0  ExecutionTime = 16.78 s  ClockTime = 17 s  Iteration 90 (0.22 s)

Time = 0.0001

    Collisions                      = 2269

    Number of DSMC particles        = 127861
    Number of stuck particles       = 0
    Number of free particles        = 127861
    Average linear kinetic energy   = 9.750797199e-20
    Average rotational energy       = 4.142665335e-21
    Average vibrational energy      = 4.018063925e-24
    Average electronic energy       = 0
    Total energy                    = 0.006498832947

Stage 1.0  ExecutionTime = 18.68 s  ClockTime = 19 s  Iteration 100 (0.2 s)

Time = 0.00011

    Collisions                      = 2217

    Number of DSMC particles        = 127861
    Number of stuck particles       = 0
    Number of free particles        = 127861
    Average linear kinetic energy   = 9.750765444e-20
    Average rotational energy       = 4.142982888e-21
    Average vibrational energy      = 4.018063925e-24
    Average electronic energy       = 0
    Total energy                    = 0.006498832947

Stage 1.0  ExecutionTime = 20.57 s  ClockTime = 21 s  Iteration 110 (0.19 s)

Time = 0.00012

    Collisions                      = 2247

    Number of DSMC particles        = 127861
    Number of stuck particles       = 0
    Number of free particles        = 127861
    Average linear kinetic energy   = 9.750508457e-20
    Average rotational energy       = 4.145552755e-21
    Average vibrational energy      = 4.018063925e-24
    Average electronic energy       = 0
    Total energy                    = 0.006498832947

Stage 1.0  ExecutionTime = 22.47 s  ClockTime = 23 s  Iteration 120 (0.19 s)

Time = 0.00013

    Collisions                      = 2203

    Number of DSMC particles        = 127861
    Number of stuck particles       = 0
    Number of free particles        = 127861
    Average linear kinetic energy   = 9.749887663e-20
    Average rotational energy       = 4.151760701e-21
    Average vibrational energy      = 4.018063925e-24
    Average electronic energy       = 0
    Total energy                    = 0.006498832947

Stage 1.0  ExecutionTime = 24.36 s  ClockTime = 24 s  Iteration 130 (0.2 s)

Time = 0.00014

    Collisions                      = 2211

    Number of DSMC particles        = 127861
    Number of stuck particles       = 0
    Number of free particles        = 127861
    Average linear kinetic energy   = 9.750180275e-20
    Average rotational energy       = 4.148834575e-21
    Average vibrational energy      = 4.018063925e-24
    Average electronic energy       = 0
    Total energy                    = 0.006498832947

Stage 1.0  ExecutionTime = 26.23 s  ClockTime = 26 s  Iteration 140 (0.2 s)

Time = 0.00015

    Collisions                      = 2243

    Number of DSMC particles        = 127861
    Number of stuck particles       = 0
    Number of free particles        = 127861
    Average linear kinetic energy   = 9.75017586e-20
    Average rotational energy       = 4.148878734e-21
    Average vibrational energy      = 4.018063925e-24
    Average electronic energy       = 0
    Total energy                    = 0.006498832947

Stage 1.0  ExecutionTime = 28.1 s  ClockTime = 28 s  Iteration 150 (0.19 s)

Time = 0.00016

    Collisions                      = 2207

    Number of DSMC particles        = 127861
    Number of stuck particles       = 0
    Number of free particles        = 127861
    Average linear kinetic energy   = 9.750934802e-20
    Average rotational energy       = 4.141289305e-21
    Average vibrational energy      = 4.018063925e-24
    Average electronic energy       = 0
    Total energy                    = 0.006498832947

Stage 1.0  ExecutionTime = 29.93 s  ClockTime = 30 s  Iteration 160 (0.19 s)

Time = 0.00017

    Collisions                      = 2284

    Number of DSMC particles        = 127861
    Number of stuck particles       = 0
    Number of free particles        = 127861
    Average linear kinetic energy   = 9.750670556e-20
    Average rotational energy       = 4.14393177e-21
    Average vibrational energy      = 4.018063925e-24
    Average electronic energy       = 0
    Total energy                    = 0.006498832947

Stage 1.0  ExecutionTime = 31.78 s  ClockTime = 32 s  Iteration 170 (0.2 s)

Time = 0.00018

    Collisions                      = 2236

    Number of DSMC particles        = 127861
    Number of stuck particles       = 0
    Number of free particles        = 127861
    Average linear kinetic energy   = 9.750486466e-20
    Average rotational energy       = 4.145772674e-21
    Average vibrational energy      = 4.018063925e-24
    Average electronic energy       = 0
    Total energy                    = 0.006498832947

Stage 1.0  ExecutionTime = 33.65 s  ClockTime = 34 s  Iteration 180 (0.21 s)

Time = 0.00019

    Collisions                      = 2266

    Number of DSMC particles        = 127861
    Number of stuck particles       = 0
    Number of free particles        = 127861
    Average linear kinetic energy   = 9.750964425e-20
    Average rotational energy       = 4.140993078e-21
    Average vibrational energy      = 4.018063925e-24
    Average electronic energy       = 0
    Total energy                    = 0.006498832947

Stage 1.0  ExecutionTime = 35.52 s  ClockTime = 36 s  Iteration 190 (0.19 s)

Time = 0.0002

    Collisions                      = 2275

    Number of DSMC particles        = 127861
    Number of stuck particles       = 0
    Number of free particles        = 127861
    Average linear kinetic energy   = 9.750440878e-20
    Average rotational energy       = 4.146228549e-21
    Average vibrational energy      = 4.018063925e-24
    Average electronic energy       = 0
    Total energy                    = 0.006498832947

Stage 1.0  ExecutionTime = 37.38 s  ClockTime = 37 s  Iteration 200 (0.2 s)

Time = 0.00021

    Collisions                      = 2226

    Number of DSMC particles        = 127861
    Number of stuck particles       = 0
    Number of free particles        = 127861
    Average linear kinetic energy   = 9.750422124e-20
    Average rotational energy       = 4.146416087e-21
    Average vibrational energy      = 4.018063925e-24
    Average electronic energy       = 0
    Total energy                    = 0.006498832947

Stage 1.0  ExecutionTime = 39.25 s  ClockTime = 39 s  Iteration 210 (0.21 s)

Time = 0.00022

    Collisions                      = 2216

    Number of DSMC particles        = 127861
    Number of stuck particles       = 0
    Number of free particles        = 127861
    Average linear kinetic energy   = 9.750273027e-20
    Average rotational energy       = 4.14790706e-21
    Average vibrational energy      = 4.018063925e-24
    Average electronic energy       = 0
    Total energy                    = 0.006498832947

Stage 1.0  ExecutionTime = 41.11 s  ClockTime = 41 s  Iteration 220 (0.21 s)

Time = 0.00023

    Collisions                      = 2303

    Number of DSMC particles        = 127861
    Number of stuck particles       = 0
    Number of free particles        = 127861
    Average linear kinetic energy   = 9.750468317e-20
    Average rotational energy       = 4.145954164e-21
    Average vibrational energy      = 4.018063925e-24
    Average electronic energy       = 0
    Total energy                    = 0.006498832947

Stage 1.0  ExecutionTime = 42.97 s  ClockTime = 43 s  Iteration 230 (0.2 s)

Time = 0.00024

    Collisions                      = 2317

    Number of DSMC particles        = 127861
    Number of stuck particles       = 0
    Number of free particles        = 127861
    Average linear kinetic energy   = 9.750356859e-20
    Average rotational energy       = 4.147068739e-21
    Average vibrational energy      = 4.018063925e-24
    Average electronic energy       = 0
    Total energy                    = 0.006498832947

Stage 1.0  ExecutionTime = 44.85 s  ClockTime = 45 s  Iteration 240 (0.2 s)

Time = 0.00025

    Collisions                      = 2261

    Number of DSMC particles        = 127861
    Number of stuck particles       = 0
    Number of free particles        = 127861
    Average linear kinetic energy   = 9.750462976e-20
    Average rotational energy       = 4.146007568e-21
    Average vibrational energy      = 4.018063925e-24
    Average electronic energy       = 0
    Total energy                    = 0.006498832947

Stage 1.0  ExecutionTime = 46.7 s  ClockTime = 47 s  Iteration 250 (0.21 s)

Time = 0.00026

    Collisions                      = 2267

    Number of DSMC particles        = 127861
    Number of stuck particles       = 0
    Number of free particles        = 127861
    Average linear kinetic energy   = 9.750003199e-20
    Average rotational energy       = 4.150605341e-21
    Average vibrational energy      = 4.018063925e-24
    Average electronic energy       = 0
    Total energy                    = 0.006498832947

Stage 1.0  ExecutionTime = 48.58 s  ClockTime = 49 s  Iteration 260 (0.21 s)

Time = 0.00027

    Collisions                      = 2205

    Number of DSMC particles        = 127861
    Number of stuck particles       = 0
    Number of free particles        = 127861
    Average linear kinetic energy   = 9.749977539e-20
    Average rotational energy       = 4.150861939e-21
    Average vibrational energy      = 4.018063925e-24
    Average electronic energy       = 0
    Total energy                    = 0.006498832947

Stage 1.0  ExecutionTime = 50.45 s  ClockTime = 50 s  Iteration 270 (0.21 s)

Time = 0.00028

    Collisions                      = 2231

    Number of DSMC particles        = 127861
    Number of stuck particles       = 0
    Number of free particles        = 127861
    Average linear kinetic energy   = 9.749367583e-20
    Average rotational energy       = 4.156961504e-21
    Average vibrational energy      = 4.018063925e-24
    Average electronic energy       = 0
    Total energy                    = 0.006498832947

Stage 1.0  ExecutionTime = 52.32 s  ClockTime = 52 s  Iteration 280 (0.19 s)

Time = 0.00029

    Collisions                      = 2308

    Number of DSMC particles        = 127861
    Number of stuck particles       = 0
    Number of free particles        = 127861
    Average linear kinetic energy   = 9.749200328e-20
    Average rotational energy       = 4.158634055e-21
    Average vibrational energy      = 4.018063925e-24
    Average electronic energy       = 0
    Total energy                    = 0.006498832947

Stage 1.0  ExecutionTime = 54.19 s  ClockTime = 54 s  Iteration 290 (0.2 s)

Time = 0.0003

    Collisions                      = 2178

    Number of DSMC particles        = 127861
    Number of stuck particles       = 0
    Number of free particles        = 127861
    Average linear kinetic energy   = 9.749012928e-20
    Average rotational energy       = 4.160508054e-21
    Average vibrational energy      = 4.018063925e-24
    Average electronic energy       = 0
    Total energy                    = 0.006498832947

Stage 1.0  ExecutionTime = 56.05 s  ClockTime = 56 s  Iteration 300 (0.2 s)

Time = 0.00031

    Collisions                      = 2212

    Number of DSMC particles        = 127861
    Number of stuck particles       = 0
    Number of free particles        = 127861
    Average linear kinetic energy   = 9.748898938e-20
    Average rotational energy       = 4.161647949e-21
    Average vibrational energy      = 4.018063925e-24
    Average electronic energy       = 0
    Total energy                    = 0.006498832947

Stage 1.0  ExecutionTime = 57.89 s  ClockTime = 58 s  Iteration 310 (0.19 s)

Time = 0.00032

    Collisions                      = 2224

    Number of DSMC particles        = 127861
    Number of stuck particles       = 0
    Number of free particles        = 127861
    Average linear kinetic energy   = 9.748708899e-20
    Average rotational energy       = 4.163548341e-21
    Average vibrational energy      = 4.018063925e-24
    Average electronic energy       = 0
    Total energy                    = 0.006498832947

Stage 1.0  ExecutionTime = 59.75 s  ClockTime = 60 s  Iteration 320 (0.18 s)

Time = 0.00033

    Collisions                      = 2202

    Number of DSMC particles        = 127861
    Number of stuck particles       = 0
    Number of free particles        = 127861
    Average linear kinetic energy   = 9.749096063e-20
    Average rotational energy       = 4.159676705e-21
    Average vibrational energy      = 4.018063925e-24
    Average electronic energy       = 0
    Total energy                    = 0.006498832947

Stage 1.0  ExecutionTime = 61.61 s  ClockTime = 62 s  Iteration 330 (0.19 s)

Time = 0.00034

    Collisions                      = 2197

    Number of DSMC particles        = 127861
    Number of stuck particles       = 0
    Number of free particles        = 127861
    Average linear kinetic energy   = 9.749168243e-20
    Average rotational energy       = 4.1589549e-21
    Average vibrational energy      = 4.018063925e-24
    Average electronic energy       = 0
    Total energy                    = 0.006498832947

Stage 1.0  ExecutionTime = 63.46 s  ClockTime = 64 s  Iteration 340 (0.19 s)

Time = 0.00035

    Collisions                      = 2197

    Number of DSMC particles        = 127861
    Number of stuck particles       = 0
    Number of free particles        = 127861
    Average linear kinetic energy   = 9.749167903e-20
    Average rotational energy       = 4.158958302e-21
    Average vibrational energy      = 4.018063925e-24
    Average electronic energy       = 0
    Total energy                    = 0.006498832947

Stage 1.0  ExecutionTime = 65.31 s  ClockTime = 65 s  Iteration 350 (0.21 s)

Time = 0.00036

    Collisions                      = 2282

    Number of DSMC particles        = 127861
    Number of stuck particles       = 0
    Number of free particles        = 127861
    Average linear kinetic energy   = 9.749531729e-20
    Average rotational energy       = 4.15532004e-21
    Average vibrational energy      = 4.018063925e-24
    Average electronic energy       = 0
    Total energy                    = 0.006498832947

Stage 1.0  ExecutionTime = 67.16 s  ClockTime = 67 s  Iteration 360 (0.2 s)

Time = 0.00037

    Collisions                      = 2153

    Number of DSMC particles        = 127861
    Number of stuck particles       = 0
    Number of free particles        = 127861
    Average linear kinetic energy   = 9.749517823e-20
    Average rotational energy       = 4.155459102e-21
    Average vibrational energy      = 4.018063925e-24
    Average electronic energy       = 0
    Total energy                    = 0.006498832947

Stage 1.0  ExecutionTime = 69.04 s  ClockTime = 69 s  Iteration 370 (0.2 s)

Time = 0.00038

    Collisions                      = 2235

    Number of DSMC particles        = 127861
    Number of stuck particles       = 0
    Number of free particles        = 127861
    Average linear kinetic energy   = 9.749462826e-20
    Average rotational energy       = 4.156009068e-21
    Average vibrational energy      = 4.018063925e-24
    Average electronic energy       = 0
    Total energy                    = 0.006498832947

Stage 1.0  ExecutionTime = 70.91 s  ClockTime = 71 s  Iteration 380 (0.19 s)

Time = 0.00039

    Collisions                      = 2276

    Number of DSMC particles        = 127861
    Number of stuck particles       = 0
    Number of free particles        = 127861
    Average linear kinetic energy   = 9.749880566e-20
    Average rotational energy       = 4.151831668e-21
    Average vibrational energy      = 4.018063925e-24
    Average electronic energy       = 0
    Total energy                    = 0.006498832947

Stage 1.0  ExecutionTime = 72.75 s  ClockTime = 73 s  Iteration 390 (0.2 s)

Time = 0.0004

    Collisions                      = 2269

    Number of DSMC particles        = 127861
    Number of stuck particles       = 0
    Number of free particles        = 127861
    Average linear kinetic energy   = 9.749290736e-20
    Average rotational energy       = 4.157729971e-21
    Average vibrational energy      = 4.018063925e-24
    Average electronic energy       = 0
    Total energy                    = 0.006498832947

Stage 1.0  ExecutionTime = 74.67 s  ClockTime = 75 s  Iteration 400 (0.22 s)

Time = 0.00041

    Collisions                      = 2318

    Number of DSMC particles        = 127861
    Number of stuck particles       = 0
    Number of free particles        = 127861
    Average linear kinetic energy   = 9.749114037e-20
    Average rotational energy       = 4.159496962e-21
    Average vibrational energy      = 4.018063925e-24
    Average electronic energy       = 0
    Total energy                    = 0.006498832947

Stage 1.0  ExecutionTime = 76.66 s  ClockTime = 77 s  Iteration 410 (0.21 s)

Time = 0.00042

    Collisions                      = 2204

    Number of DSMC particles        = 127861
    Number of stuck particles       = 0
    Number of free particles        = 127861
    Average linear kinetic energy   = 9.748990736e-20
    Average rotational energy       = 4.160729972e-21
    Average vibrational energy      = 4.018063925e-24
    Average electronic energy       = 0
    Total energy                    = 0.006498832947

Stage 1.0  ExecutionTime = 78.58 s  ClockTime = 79 s  Iteration 420 (0.19 s)

Time = 0.00043

    Collisions                      = 2261

    Number of DSMC particles        = 127861
    Number of stuck particles       = 0
    Number of free particles        = 127861
    Average linear kinetic energy   = 9.748778337e-20
    Average rotational energy       = 4.162853962e-21
    Average vibrational energy      = 4.018063925e-24
    Average electronic energy       = 0
    Total energy                    = 0.006498832947

Stage 1.0  ExecutionTime = 80.52 s  ClockTime = 81 s  Iteration 430 (0.2 s)

Time = 0.00044

    Collisions                      = 2239

    Number of DSMC particles        = 127861
    Number of stuck particles       = 0
    Number of free particles        = 127861
    Average linear kinetic energy   = 9.748932313e-20
    Average rotational energy       = 4.161314197e-21
    Average vibrational energy      = 4.018063925e-24
    Average electronic energy       = 0
    Total energy                    = 0.006498832947

Stage 1.0  ExecutionTime = 82.48 s  ClockTime = 83 s  Iteration 440 (0.22 s)

Time = 0.00045

    Collisions                      = 2265

    Number of DSMC particles        = 127861
    Number of stuck particles       = 0
    Number of free particles        = 127861
    Average linear kinetic energy   = 9.748720385e-20
    Average rotational energy       = 4.163433477e-21
    Average vibrational energy      = 4.018063925e-24
    Average electronic energy       = 0
    Total energy                    = 0.006498832947

Stage 1.0  ExecutionTime = 84.4 s  ClockTime = 84 s  Iteration 450 (0.22 s)

Time = 0.00046

    Collisions                      = 2218

    Number of DSMC particles        = 127861
    Number of stuck particles       = 0
    Number of free particles        = 127861
    Average linear kinetic energy   = 9.748508467e-20
    Average rotational energy       = 4.165552659e-21
    Average vibrational energy      = 4.018063925e-24
    Average electronic energy       = 0
    Total energy                    = 0.006498832947

Stage 1.0  ExecutionTime = 86.28 s  ClockTime = 86 s  Iteration 460 (0.2 s)

Time = 0.00047

    Collisions                      = 2273

    Number of DSMC particles        = 127861
    Number of stuck particles       = 0
    Number of free particles        = 127861
    Average linear kinetic energy   = 9.748552301e-20
    Average rotational energy       = 4.165114322e-21
    Average vibrational energy      = 4.018063925e-24
    Average electronic energy       = 0
    Total energy                    = 0.006498832947

Stage 1.0  ExecutionTime = 88.09 s  ClockTime = 88 s  Iteration 470 (0.2 s)

Time = 0.00048

    Collisions                      = 2256

    Number of DSMC particles        = 127861
    Number of stuck particles       = 0
    Number of free particles        = 127861
    Average linear kinetic energy   = 9.749316287e-20
    Average rotational energy       = 4.157474455e-21
    Average vibrational energy      = 4.018063925e-24
    Average electronic energy       = 0
    Total energy                    = 0.006498832947

Stage 1.0  ExecutionTime = 89.89 s  ClockTime = 90 s  Iteration 480 (0.2 s)

Time = 0.00049

    Collisions                      = 2218

    Number of DSMC particles        = 127861
    Number of stuck particles       = 0
    Number of free particles        = 127861
    Average linear kinetic energy   = 9.749377328e-20
    Average rotational energy       = 4.156864054e-21
    Average vibrational energy      = 4.018063925e-24
    Average electronic energy       = 0
    Total energy                    = 0.006498832947

Stage 1.0  ExecutionTime = 91.7 s  ClockTime = 92 s  Iteration 490 (0.21 s)

Time = 0.0005

    Collisions                      = 2261

    Number of DSMC particles        = 127861
    Number of stuck particles       = 0
    Number of free particles        = 127861
    Average linear kinetic energy   = 9.748968426e-20
    Average rotational energy       = 4.160953071e-21
    Average vibrational energy      = 4.018063925e-24
    Average electronic energy       = 0
    Total energy                    = 0.006498832947

Stage 1.0  ExecutionTime = 93.61 s  ClockTime = 94 s  Iteration 500 (0.21 s)

Time = 0.00051

    Collisions                      = 2183

    Number of DSMC particles        = 127861
    Number of stuck particles       = 0
    Number of free particles        = 127861
    Average linear kinetic energy   = 9.749745902e-20
    Average rotational energy       = 4.153178308e-21
    Average vibrational energy      = 4.018063925e-24
    Average electronic energy       = 0
    Total energy                    = 0.006498832947

Stage 1.0  ExecutionTime = 95.52 s  ClockTime = 96 s  Iteration 510 (0.21 s)

Time = 0.00052

    Collisions                      = 2239

    Number of DSMC particles        = 127861
    Number of stuck particles       = 0
    Number of free particles        = 127861
    Average linear kinetic energy   = 9.749655893e-20
    Average rotational energy       = 4.154078396e-21
    Average vibrational energy      = 4.018063925e-24
    Average electronic energy       = 0
    Total energy                    = 0.006498832947

Stage 1.0  ExecutionTime = 97.43 s  ClockTime = 97 s  Iteration 520 (0.21 s)

Time = 0.00053

    Collisions                      = 2294

    Number of DSMC particles        = 127861
    Number of stuck particles       = 0
    Number of free particles        = 127861
    Average linear kinetic energy   = 9.749126341e-20
    Average rotational energy       = 4.159373922e-21
    Average vibrational energy      = 4.018063925e-24
    Average electronic energy       = 0
    Total energy                    = 0.006498832947

Stage 1.0  ExecutionTime = 99.32 s  ClockTime = 99 s  Iteration 530 (0.2 s)

Time = 0.00054

    Collisions                      = 2279

    Number of DSMC particles        = 127861
    Number of stuck particles       = 0
    Number of free particles        = 127861
    Average linear kinetic energy   = 9.74923437e-20
    Average rotational energy       = 4.158293633e-21
    Average vibrational energy      = 4.018063925e-24
    Average electronic energy       = 0
    Total energy                    = 0.006498832947

Stage 1.0  ExecutionTime = 101.22 s  ClockTime = 101 s  Iteration 540 (0.2 s)

Time = 0.00055

    Collisions                      = 2257

    Number of DSMC particles        = 127861
    Number of stuck particles       = 0
    Number of free particles        = 127861
    Average linear kinetic energy   = 9.749442306e-20
    Average rotational energy       = 4.156214274e-21
    Average vibrational energy      = 4.018063925e-24
    Average electronic energy       = 0
    Total energy                    = 0.006498832947

Stage 1.0  ExecutionTime = 103.12 s  ClockTime = 103 s  Iteration 550 (0.2 s)

Time = 0.00056

    Collisions                      = 2249

    Number of DSMC particles        = 127861
    Number of stuck particles       = 0
    Number of free particles        = 127861
    Average linear kinetic energy   = 9.74947746e-20
    Average rotational energy       = 4.155862727e-21
    Average vibrational energy      = 4.018063925e-24
    Average electronic energy       = 0
    Total energy                    = 0.006498832947

Stage 1.0  ExecutionTime = 105.03 s  ClockTime = 105 s  Iteration 560 (0.21 s)

Time = 0.00057

    Collisions                      = 2254

    Number of DSMC particles        = 127861
    Number of stuck particles       = 0
    Number of free particles        = 127861
    Average linear kinetic energy   = 9.748826326e-20
    Average rotational energy       = 4.162374071e-21
    Average vibrational energy      = 4.018063925e-24
    Average electronic energy       = 0
    Total energy                    = 0.006498832947

Stage 1.0  ExecutionTime = 106.93 s  ClockTime = 107 s  Iteration 570 (0.21 s)

Time = 0.00058

    Collisions                      = 2189

    Number of DSMC particles        = 127861
    Number of stuck particles       = 0
    Number of free particles        = 127861
    Average linear kinetic energy   = 9.748749114e-20
    Average rotational energy       = 4.163146193e-21
    Average vibrational energy      = 4.018063925e-24
    Average electronic energy       = 0
    Total energy                    = 0.006498832947

Stage 1.0  ExecutionTime = 108.85 s  ClockTime = 109 s  Iteration 580 (0.21 s)

Time = 0.00059

    Collisions                      = 2219

    Number of DSMC particles        = 127861
    Number of stuck particles       = 0
    Number of free particles        = 127861
    Average linear kinetic energy   = 9.749102765e-20
    Average rotational energy       = 4.159609683e-21
    Average vibrational energy      = 4.018063925e-24
    Average electronic energy       = 0
    Total energy                    = 0.006498832947

Stage 1.0  ExecutionTime = 110.76 s  ClockTime = 111 s  Iteration 590 (0.22 s)

Time = 0.0006

    Collisions                      = 2260

    Number of DSMC particles        = 127861
    Number of stuck particles       = 0
    Number of free particles        = 127861
    Average linear kinetic energy   = 9.749701146e-20
    Average rotational energy       = 4.153625873e-21
    Average vibrational energy      = 4.018063925e-24
    Average electronic energy       = 0
    Total energy                    = 0.006498832947

Stage 1.0  ExecutionTime = 112.65 s  ClockTime = 113 s  Iteration 600 (0.21 s)

Time = 0.00061

    Collisions                      = 2238

    Number of DSMC particles        = 127861
    Number of stuck particles       = 0
    Number of free particles        = 127861
    Average linear kinetic energy   = 9.749935927e-20
    Average rotational energy       = 4.151278063e-21
    Average vibrational energy      = 4.018063925e-24
    Average electronic energy       = 0
    Total energy                    = 0.006498832947

Stage 1.0  ExecutionTime = 114.55 s  ClockTime = 115 s  Iteration 610 (0.21 s)

Time = 0.00062

    Collisions                      = 2268

    Number of DSMC particles        = 127861
    Number of stuck particles       = 0
    Number of free particles        = 127861
    Average linear kinetic energy   = 9.749275391e-20
    Average rotational energy       = 4.157883423e-21
    Average vibrational energy      = 4.018063925e-24
    Average electronic energy       = 0
    Total energy                    = 0.006498832947

Stage 1.0  ExecutionTime = 116.47 s  ClockTime = 117 s  Iteration 620 (0.21 s)

Time = 0.00063

    Collisions                      = 2229

    Number of DSMC particles        = 127861
    Number of stuck particles       = 0
    Number of free particles        = 127861
    Average linear kinetic energy   = 9.74866286e-20
    Average rotational energy       = 4.164008732e-21
    Average vibrational energy      = 4.018063925e-24
    Average electronic energy       = 0
    Total energy                    = 0.006498832947

Stage 1.0  ExecutionTime = 118.38 s  ClockTime = 118 s  Iteration 630 (0.21 s)

Time = 0.00064

    Collisions                      = 2259

    Number of DSMC particles        = 127861
    Number of stuck particles       = 0
    Number of free particles        = 127861
    Average linear kinetic energy   = 9.748784204e-20
    Average rotational energy       = 4.162795286e-21
    Average vibrational energy      = 4.018063925e-24
    Average electronic energy       = 0
    Total energy                    = 0.006498832947

Stage 1.0  ExecutionTime = 120.28 s  ClockTime = 120 s  Iteration 640 (0.21 s)

Time = 0.00065

    Collisions                      = 2233

    Number of DSMC particles        = 127861
    Number of stuck particles       = 0
    Number of free particles        = 127861
    Average linear kinetic energy   = 9.748926481e-20
    Average rotational energy       = 4.161372517e-21
    Average vibrational energy      = 4.018063925e-24
    Average electronic energy       = 0
    Total energy                    = 0.006498832947

Stage 1.0  ExecutionTime = 122.2 s  ClockTime = 122 s  Iteration 650 (0.22 s)

Time = 0.00066

    Collisions                      = 2220

    Number of DSMC particles        = 127861
    Number of stuck particles       = 0
    Number of free particles        = 127861
    Average linear kinetic energy   = 9.748980018e-20
    Average rotational energy       = 4.160837145e-21
    Average vibrational energy      = 4.018063925e-24
    Average electronic energy       = 0
    Total energy                    = 0.006498832947

Stage 1.0  ExecutionTime = 124.11 s  ClockTime = 124 s  Iteration 660 (0.22 s)

Time = 0.00067

    Collisions                      = 2282

    Number of DSMC particles        = 127861
    Number of stuck particles       = 0
    Number of free particles        = 127861
    Average linear kinetic energy   = 9.748805974e-20
    Average rotational energy       = 4.162577595e-21
    Average vibrational energy      = 4.018063925e-24
    Average electronic energy       = 0
    Total energy                    = 0.006498832947

Stage 1.0  ExecutionTime = 126.02 s  ClockTime = 126 s  Iteration 670 (0.22 s)

Time = 0.00068

    Collisions                      = 2177

    Number of DSMC particles        = 127861
    Number of stuck particles       = 0
    Number of free particles        = 127861
    Average linear kinetic energy   = 9.748799218e-20
    Average rotational energy       = 4.162645154e-21
    Average vibrational energy      = 4.018063925e-24
    Average electronic energy       = 0
    Total energy                    = 0.006498832947

Stage 1.0  ExecutionTime = 127.91 s  ClockTime = 128 s  Iteration 680 (0.22 s)

Time = 0.00069

    Collisions                      = 2235

    Number of DSMC particles        = 127861
    Number of stuck particles       = 0
    Number of free particles        = 127861
    Average linear kinetic energy   = 9.748953889e-20
    Average rotational energy       = 4.161098444e-21
    Average vibrational energy      = 4.018063925e-24
    Average electronic energy       = 0
    Total energy                    = 0.006498832947

Stage 1.0  ExecutionTime = 129.81 s  ClockTime = 130 s  Iteration 690 (0.22 s)

Time = 0.0007

    Collisions                      = 2199

    Number of DSMC particles        = 127861
    Number of stuck particles       = 0
    Number of free particles        = 127861
    Average linear kinetic energy   = 9.748270465e-20
    Average rotational energy       = 4.167932675e-21
    Average vibrational energy      = 4.018063925e-24
    Average electronic energy       = 0
    Total energy                    = 0.006498832947

Stage 1.0  ExecutionTime = 131.72 s  ClockTime = 132 s  Iteration 700 (0.22 s)

Time = 0.00071

    Collisions                      = 2204

    Number of DSMC particles        = 127861
    Number of stuck particles       = 0
    Number of free particles        = 127861
    Average linear kinetic energy   = 9.747648141e-20
    Average rotational energy       = 4.174155919e-21
    Average vibrational energy      = 4.018063925e-24
    Average electronic energy       = 0
    Total energy                    = 0.006498832947

Stage 1.0  ExecutionTime = 133.63 s  ClockTime = 134 s  Iteration 710 (0.22 s)

Time = 0.00072

    Collisions                      = 2264

    Number of DSMC particles        = 127861
    Number of stuck particles       = 0
    Number of free particles        = 127861
    Average linear kinetic energy   = 9.747849415e-20
    Average rotational energy       = 4.172143178e-21
    Average vibrational energy      = 4.018063925e-24
    Average electronic energy       = 0
    Total energy                    = 0.006498832947

Stage 1.0  ExecutionTime = 135.55 s  ClockTime = 136 s  Iteration 720 (0.22 s)

Time = 0.00073

    Collisions                      = 2222

    Number of DSMC particles        = 127861
    Number of stuck particles       = 0
    Number of free particles        = 127861
    Average linear kinetic energy   = 9.748273926e-20
    Average rotational energy       = 4.167898067e-21
    Average vibrational energy      = 4.018063925e-24
    Average electronic energy       = 0
    Total energy                    = 0.006498832947

Stage 1.0  ExecutionTime = 137.45 s  ClockTime = 138 s  Iteration 730 (0.22 s)

Time = 0.00074

    Collisions                      = 2307

    Number of DSMC particles        = 127861
    Number of stuck particles       = 0
    Number of free particles        = 127861
    Average linear kinetic energy   = 9.748409201e-20
    Average rotational energy       = 4.166545316e-21
    Average vibrational energy      = 4.018063925e-24
    Average electronic energy       = 0
    Total energy                    = 0.006498832947

Stage 1.0  ExecutionTime = 139.34 s  ClockTime = 139 s  Iteration 740 (0.23 s)

Time = 0.00075

    Collisions                      = 2278

    Number of DSMC particles        = 127861
    Number of stuck particles       = 0
    Number of free particles        = 127861
    Average linear kinetic energy   = 9.748419939e-20
    Average rotational energy       = 4.166437939e-21
    Average vibrational energy      = 4.018063925e-24
    Average electronic energy       = 0
    Total energy                    = 0.006498832947

Stage 1.0  ExecutionTime = 141.25 s  ClockTime = 141 s  Iteration 750 (0.21 s)

Time = 0.00076

    Collisions                      = 2225

    Number of DSMC particles        = 127861
    Number of stuck particles       = 0
    Number of free particles        = 127861
    Average linear kinetic energy   = 9.748696212e-20
    Average rotational energy       = 4.16367521e-21
    Average vibrational energy      = 4.018063925e-24
    Average electronic energy       = 0
    Total energy                    = 0.006498832947

Stage 1.0  ExecutionTime = 143.17 s  ClockTime = 143 s  Iteration 760 (0.22 s)

Time = 0.00077

    Collisions                      = 2158

    Number of DSMC particles        = 127861
    Number of stuck particles       = 0
    Number of free particles        = 127861
    Average linear kinetic energy   = 9.748531748e-20
    Average rotational energy       = 4.165319845e-21
    Average vibrational energy      = 4.018063925e-24
    Average electronic energy       = 0
    Total energy                    = 0.006498832947

Stage 1.0  ExecutionTime = 145.07 s  ClockTime = 145 s  Iteration 770 (0.21 s)

Time = 0.00078

    Collisions                      = 2257

    Number of DSMC particles        = 127861
    Number of stuck particles       = 0
    Number of free particles        = 127861
    Average linear kinetic energy   = 9.749086841e-20
    Average rotational energy       = 4.159768919e-21
    Average vibrational energy      = 4.018063925e-24
    Average electronic energy       = 0
    Total energy                    = 0.006498832947

Stage 1.0  ExecutionTime = 146.98 s  ClockTime = 147 s  Iteration 780 (0.21 s)

Time = 0.00079

    Collisions                      = 2201

    Number of DSMC particles        = 127861
    Number of stuck particles       = 0
    Number of free particles        = 127861
    Average linear kinetic energy   = 9.74899061e-20
    Average rotational energy       = 4.160731234e-21
    Average vibrational energy      = 4.018063925e-24
    Average electronic energy       = 0
    Total energy                    = 0.006498832947

Stage 1.0  ExecutionTime = 148.89 s  ClockTime = 149 s  Iteration 790 (0.2 s)

Time = 0.0008

    Collisions                      = 2279

    Number of DSMC particles        = 127861
    Number of stuck particles       = 0
    Number of free particles        = 127861
    Average linear kinetic energy   = 9.748519941e-20
    Average rotational energy       = 4.165437916e-21
    Average vibrational energy      = 4.018063925e-24
    Average electronic energy       = 0
    Total energy                    = 0.006498832947

Stage 1.0  ExecutionTime = 150.8 s  ClockTime = 151 s  Iteration 800 (0.21 s)

Time = 0.00081

    Collisions                      = 2228

    Number of DSMC particles        = 127861
    Number of stuck particles       = 0
    Number of free particles        = 127861
    Average linear kinetic energy   = 9.748849751e-20
    Average rotational energy       = 4.162139823e-21
    Average vibrational energy      = 4.018063925e-24
    Average electronic energy       = 0
    Total energy                    = 0.006498832947

Stage 1.0  ExecutionTime = 152.72 s  ClockTime = 153 s  Iteration 810 (0.22 s)

Time = 0.00082

    Collisions                      = 2247

    Number of DSMC particles        = 127861
    Number of stuck particles       = 0
    Number of free particles        = 127861
    Average linear kinetic energy   = 9.748884984e-20
    Average rotational energy       = 4.161787492e-21
    Average vibrational energy      = 4.018063925e-24
    Average electronic energy       = 0
    Total energy                    = 0.006498832947

Stage 1.0  ExecutionTime = 154.62 s  ClockTime = 155 s  Iteration 820 (0.21 s)

Time = 0.00083

    Collisions                      = 2206

    Number of DSMC particles        = 127861
    Number of stuck particles       = 0
    Number of free particles        = 127861
    Average linear kinetic energy   = 9.748593684e-20
    Average rotational energy       = 4.164700489e-21
    Average vibrational energy      = 4.018063925e-24
    Average electronic energy       = 0
    Total energy                    = 0.006498832947

Stage 1.0  ExecutionTime = 156.51 s  ClockTime = 157 s  Iteration 830 (0.2 s)

Time = 0.00084

    Collisions                      = 2210

    Number of DSMC particles        = 127861
    Number of stuck particles       = 0
    Number of free particles        = 127861
    Average linear kinetic energy   = 9.74867125e-20
    Average rotational energy       = 4.163924832e-21
    Average vibrational energy      = 4.018063925e-24
    Average electronic energy       = 0
    Total energy                    = 0.006498832947

Stage 1.0  ExecutionTime = 158.42 s  ClockTime = 158 s  Iteration 840 (0.21 s)

Time = 0.00085

    Collisions                      = 2266

    Number of DSMC particles        = 127861
    Number of stuck particles       = 0
    Number of free particles        = 127861
    Average linear kinetic energy   = 9.748977064e-20
    Average rotational energy       = 4.160866688e-21
    Average vibrational energy      = 4.018063925e-24
    Average electronic energy       = 0
    Total energy                    = 0.006498832947

Stage 1.0  ExecutionTime = 160.33 s  ClockTime = 160 s  Iteration 850 (0.21 s)

Time = 0.00086

    Collisions                      = 2231

    Number of DSMC particles        = 127861
    Number of stuck particles       = 0
    Number of free particles        = 127861
    Average linear kinetic energy   = 9.749091584e-20
    Average rotational energy       = 4.159721485e-21
    Average vibrational energy      = 4.018063925e-24
    Average electronic energy       = 0
    Total energy                    = 0.006498832947

Stage 1.0  ExecutionTime = 162.24 s  ClockTime = 162 s  Iteration 860 (0.21 s)

Time = 0.00087

    Collisions                      = 2327

    Number of DSMC particles        = 127861
    Number of stuck particles       = 0
    Number of free particles        = 127861
    Average linear kinetic energy   = 9.74887597e-20
    Average rotational energy       = 4.161877632e-21
    Average vibrational energy      = 4.018063925e-24
    Average electronic energy       = 0
    Total energy                    = 0.006498832947

Stage 1.0  ExecutionTime = 164.14 s  ClockTime = 164 s  Iteration 870 (0.21 s)

Time = 0.00088

    Collisions                      = 2199

    Number of DSMC particles        = 127861
    Number of stuck particles       = 0
    Number of free particles        = 127861
    Average linear kinetic energy   = 9.74869562e-20
    Average rotational energy       = 4.163681126e-21
    Average vibrational energy      = 4.018063925e-24
    Average electronic energy       = 0
    Total energy                    = 0.006498832947

Stage 1.0  ExecutionTime = 166.05 s  ClockTime = 166 s  Iteration 880 (0.21 s)

Time = 0.00089

    Collisions                      = 2203

    Number of DSMC particles        = 127861
    Number of stuck particles       = 0
    Number of free particles        = 127861
    Average linear kinetic energy   = 9.749109468e-20
    Average rotational energy       = 4.159542651e-21
    Average vibrational energy      = 4.018063925e-24
    Average electronic energy       = 0
    Total energy                    = 0.006498832947

Stage 1.0  ExecutionTime = 167.96 s  ClockTime = 168 s  Iteration 890 (0.21 s)

Time = 0.0009

    Collisions                      = 2149

    Number of DSMC particles        = 127861
    Number of stuck particles       = 0
    Number of free particles        = 127861
    Average linear kinetic energy   = 9.749037022e-20
    Average rotational energy       = 4.160267114e-21
    Average vibrational energy      = 4.018063925e-24
    Average electronic energy       = 0
    Total energy                    = 0.006498832947

Stage 1.0  ExecutionTime = 169.86 s  ClockTime = 170 s  Iteration 900 (0.21 s)

Time = 0.00091

    Collisions                      = 2279

    Number of DSMC particles        = 127861
    Number of stuck particles       = 0
    Number of free particles        = 127861
    Average linear kinetic energy   = 9.748939948e-20
    Average rotational energy       = 4.161237846e-21
    Average vibrational energy      = 4.018063925e-24
    Average electronic energy       = 0
    Total energy                    = 0.006498832947

Stage 1.0  ExecutionTime = 171.77 s  ClockTime = 172 s  Iteration 910 (0.21 s)

Time = 0.00092

    Collisions                      = 2293

    Number of DSMC particles        = 127861
    Number of stuck particles       = 0
    Number of free particles        = 127861
    Average linear kinetic energy   = 9.74843352e-20
    Average rotational energy       = 4.166302126e-21
    Average vibrational energy      = 4.018063925e-24
    Average electronic energy       = 0
    Total energy                    = 0.006498832947

Stage 1.0  ExecutionTime = 173.67 s  ClockTime = 174 s  Iteration 920 (0.2 s)

Time = 0.00093

    Collisions                      = 2268

    Number of DSMC particles        = 127861
    Number of stuck particles       = 0
    Number of free particles        = 127861
    Average linear kinetic energy   = 9.748724202e-20
    Average rotational energy       = 4.163395313e-21
    Average vibrational energy      = 4.018063925e-24
    Average electronic energy       = 0
    Total energy                    = 0.006498832947

Stage 1.0  ExecutionTime = 175.59 s  ClockTime = 176 s  Iteration 930 (0.21 s)

Time = 0.00094

    Collisions                      = 2264

    Number of DSMC particles        = 127861
    Number of stuck particles       = 0
    Number of free particles        = 127861
    Average linear kinetic energy   = 9.748739913e-20
    Average rotational energy       = 4.163238198e-21
    Average vibrational energy      = 4.018063925e-24
    Average electronic energy       = 0
    Total energy                    = 0.006498832947

Stage 1.0  ExecutionTime = 177.49 s  ClockTime = 178 s  Iteration 940 (0.21 s)

Time = 0.00095

    Collisions                      = 2231

    Number of DSMC particles        = 127861
    Number of stuck particles       = 0
    Number of free particles        = 127861
    Average linear kinetic energy   = 9.748919044e-20
    Average rotational energy       = 4.16144689e-21
    Average vibrational energy      = 4.018063925e-24
    Average electronic energy       = 0
    Total energy                    = 0.006498832947

Stage 1.0  ExecutionTime = 179.4 s  ClockTime = 179 s  Iteration 950 (0.21 s)

Time = 0.00096

    Collisions                      = 2254

    Number of DSMC particles        = 127861
    Number of stuck particles       = 0
    Number of free particles        = 127861
    Average linear kinetic energy   = 9.749456061e-20
    Average rotational energy       = 4.156076721e-21
    Average vibrational energy      = 4.018063925e-24
    Average electronic energy       = 0
    Total energy                    = 0.006498832947

Stage 1.0  ExecutionTime = 181.31 s  ClockTime = 181 s  Iteration 960 (0.22 s)

Time = 0.00097

    Collisions                      = 2267

    Number of DSMC particles        = 127861
    Number of stuck particles       = 0
    Number of free particles        = 127861
    Average linear kinetic energy   = 9.749160961e-20
    Average rotational energy       = 4.159027715e-21
    Average vibrational energy      = 4.018063925e-24
    Average electronic energy       = 0
    Total energy                    = 0.006498832947

Stage 1.0  ExecutionTime = 183.21 s  ClockTime = 183 s  Iteration 970 (0.22 s)

Time = 0.00098

    Collisions                      = 2206

    Number of DSMC particles        = 127861
    Number of stuck particles       = 0
    Number of free particles        = 127861
    Average linear kinetic energy   = 9.749509472e-20
    Average rotational energy       = 4.15554261e-21
    Average vibrational energy      = 4.018063925e-24
    Average electronic energy       = 0
    Total energy                    = 0.006498832947

Stage 1.0  ExecutionTime = 185.12 s  ClockTime = 185 s  Iteration 980 (0.22 s)

Time = 0.00099

    Collisions                      = 2277

    Number of DSMC particles        = 127861
    Number of stuck particles       = 0
    Number of free particles        = 127861
    Average linear kinetic energy   = 9.749799974e-20
    Average rotational energy       = 4.152637589e-21
    Average vibrational energy      = 4.018063925e-24
    Average electronic energy       = 0
    Total energy                    = 0.006498832947

Stage 1.0  ExecutionTime = 187.02 s  ClockTime = 187 s  Iteration 990 (0.22 s)

Time = 0.001

    Collisions                      = 2196

    Number of DSMC particles        = 127861
    Number of stuck particles       = 0
    Number of free particles        = 127861
    Average linear kinetic energy   = 9.749249891e-20
    Average rotational energy       = 4.158138415e-21
    Average vibrational energy      = 4.018063925e-24
    Average electronic energy       = 0
    Total energy                    = 0.006498832947

Stage 1.0  ExecutionTime = 189.14 s  ClockTime = 189 s  Iteration 1000 (0.63 s)

    Maximum imbalance = 0.3965243507%
Time = 0.00101

    Collisions                      = 2293

    Number of DSMC particles        = 127861
    Number of stuck particles       = 0
    Number of free particles        = 127861
    Average linear kinetic energy   = 9.749353445e-20
    Average rotational energy       = 4.157102875e-21
    Average vibrational energy      = 4.018063925e-24
    Average electronic energy       = 0
    Total energy                    = 0.006498832947

Stage 1.0  ExecutionTime = 190.47 s  ClockTime = 191 s  Iteration 1010 (0.15 s)

Time = 0.00102

    Collisions                      = 2245

    Number of DSMC particles        = 127861
    Number of stuck particles       = 0
    Number of free particles        = 127861
    Average linear kinetic energy   = 9.748813934e-20
    Average rotational energy       = 4.162497991e-21
    Average vibrational energy      = 4.018063925e-24
    Average electronic energy       = 0
    Total energy                    = 0.006498832947

Stage 1.0  ExecutionTime = 191.75 s  ClockTime = 192 s  Iteration 1020 (0.13 s)

Time = 0.00103

    Collisions                      = 2248

    Number of DSMC particles        = 127861
    Number of stuck particles       = 0
    Number of free particles        = 127861
    Average linear kinetic energy   = 9.74856247e-20
    Average rotational energy       = 4.165012631e-21
    Average vibrational energy      = 4.018063925e-24
    Average electronic energy       = 0
    Total energy                    = 0.006498832947

Stage 1.0  ExecutionTime = 193.04 s  ClockTime = 193 s  Iteration 1030 (0.13 s)

Time = 0.00104

    Collisions                      = 2295

    Number of DSMC particles        = 127861
    Number of stuck particles       = 0
    Number of free particles        = 127861
    Average linear kinetic energy   = 9.748483576e-20
    Average rotational energy       = 4.16580157e-21
    Average vibrational energy      = 4.018063925e-24
    Average electronic energy       = 0
    Total energy                    = 0.006498832947

Stage 1.0  ExecutionTime = 194.42 s  ClockTime = 194 s  Iteration 1040 (0.14 s)

Time = 0.00105

    Collisions                      = 2185

    Number of DSMC particles        = 127861
    Number of stuck particles       = 0
    Number of free particles        = 127861
    Average linear kinetic energy   = 9.7489407e-20
    Average rotational energy       = 4.161230331e-21
    Average vibrational energy      = 4.018063925e-24
    Average electronic energy       = 0
    Total energy                    = 0.006498832947

Stage 1.0  ExecutionTime = 195.8 s  ClockTime = 196 s  Iteration 1050 (0.15 s)

Time = 0.00106

    Collisions                      = 2266

    Number of DSMC particles        = 127861
    Number of stuck particles       = 0
    Number of free particles        = 127861
    Average linear kinetic energy   = 9.748589752e-20
    Average rotational energy       = 4.164739813e-21
    Average vibrational energy      = 4.018063925e-24
    Average electronic energy       = 0
    Total energy                    = 0.006498832947

Stage 1.0  ExecutionTime = 197.18 s  ClockTime = 197 s  Iteration 1060 (0.15 s)

Time = 0.00107

    Collisions                      = 2222

    Number of DSMC particles        = 127861
    Number of stuck particles       = 0
    Number of free particles        = 127861
    Average linear kinetic energy   = 9.748450133e-20
    Average rotational energy       = 4.166135995e-21
    Average vibrational energy      = 4.018063925e-24
    Average electronic energy       = 0
    Total energy                    = 0.006498832947

Stage 1.0  ExecutionTime = 198.57 s  ClockTime = 199 s  Iteration 1070 (0.15 s)

Time = 0.00108

    Collisions                      = 2281

    Number of DSMC particles        = 127861
    Number of stuck particles       = 0
    Number of free particles        = 127861
    Average linear kinetic energy   = 9.748707172e-20
    Average rotational energy       = 4.163565606e-21
    Average vibrational energy      = 4.018063925e-24
    Average electronic energy       = 0
    Total energy                    = 0.006498832947

Stage 1.0  ExecutionTime = 199.95 s  ClockTime = 200 s  Iteration 1080 (0.14 s)

Time = 0.00109

    Collisions                      = 2168

    Number of DSMC particles        = 127861
    Number of stuck particles       = 0
    Number of free particles        = 127861
    Average linear kinetic energy   = 9.748288493e-20
    Average rotational energy       = 4.167752401e-21
    Average vibrational energy      = 4.018063925e-24
    Average electronic energy       = 0
    Total energy                    = 0.006498832947

Stage 1.0  ExecutionTime = 201.33 s  ClockTime = 201 s  Iteration 1090 (0.15 s)

Time = 0.0011

    Collisions                      = 2239

    Number of DSMC particles        = 127861
    Number of stuck particles       = 0
    Number of free particles        = 127861
    Average linear kinetic energy   = 9.748240199e-20
    Average rotational energy       = 4.168235343e-21
    Average vibrational energy      = 4.018063925e-24
    Average electronic energy       = 0
    Total energy                    = 0.006498832947

Stage 1.0  ExecutionTime = 202.76 s  ClockTime = 203 s  Iteration 1100 (0.16 s)

Time = 0.00111

    Collisions                      = 2199

    Number of DSMC particles        = 127861
    Number of stuck particles       = 0
    Number of free particles        = 127861
    Average linear kinetic energy   = 9.748308733e-20
    Average rotational energy       = 4.167549996e-21
    Average vibrational energy      = 4.018063925e-24
    Average electronic energy       = 0
    Total energy                    = 0.006498832947

Stage 1.0  ExecutionTime = 204.13 s  ClockTime = 204 s  Iteration 1110 (0.14 s)

Time = 0.00112

    Collisions                      = 2255

    Number of DSMC particles        = 127861
    Number of stuck particles       = 0
    Number of free particles        = 127861
    Average linear kinetic energy   = 9.748619578e-20
    Average rotational energy       = 4.164441548e-21
    Average vibrational energy      = 4.018063925e-24
    Average electronic energy       = 0
    Total energy                    = 0.006498832947

Stage 1.0  ExecutionTime = 205.48 s  ClockTime = 206 s  Iteration 1120 (0.14 s)

Time = 0.00113

    Collisions                      = 2268

    Number of DSMC particles        = 127861
    Number of stuck particles       = 0
    Number of free particles        = 127861
    Average linear kinetic energy   = 9.748911257e-20
    Average rotational energy       = 4.161524759e-21
    Average vibrational energy      = 4.018063925e-24
    Average electronic energy       = 0
    Total energy                    = 0.006498832947

Stage 1.0  ExecutionTime = 206.89 s  ClockTime = 207 s  Iteration 1130 (0.17 s)

Time = 0.00114

    Collisions                      = 2270

    Number of DSMC particles        = 127861
    Number of stuck particles       = 0
    Number of free particles        = 127861
    Average linear kinetic energy   = 9.748841574e-20
    Average rotational energy       = 4.162221592e-21
    Average vibrational energy      = 4.018063925e-24
    Average electronic energy       = 0
    Total energy                    = 0.006498832947

Stage 1.0  ExecutionTime = 208.27 s  ClockTime = 208 s  Iteration 1140 (0.14 s)

Time = 0.00115

    Collisions                      = 2244

    Number of DSMC particles        = 127861
    Number of stuck particles       = 0
    Number of free particles        = 127861
    Average linear kinetic energy   = 9.749133569e-20
    Average rotational energy       = 4.159301639e-21
    Average vibrational energy      = 4.018063925e-24
    Average electronic energy       = 0
    Total energy                    = 0.006498832947

Stage 1.0  ExecutionTime = 209.63 s  ClockTime = 210 s  Iteration 1150 (0.13 s)

Time = 0.00116

    Collisions                      = 2261

    Number of DSMC particles        = 127861
    Number of stuck particles       = 0
    Number of free particles        = 127861
    Average linear kinetic energy   = 9.749378474e-20
    Average rotational energy       = 4.156852585e-21
    Average vibrational energy      = 4.018063925e-24
    Average electronic energy       = 0
    Total energy                    = 0.006498832947

Stage 1.0  ExecutionTime = 211.01 s  ClockTime = 211 s  Iteration 1160 (0.15 s)

Time = 0.00117

    Collisions                      = 2242

    Number of DSMC particles        = 127861
    Number of stuck particles       = 0
    Number of free particles        = 127861
    Average linear kinetic energy   = 9.749329812e-20
    Average rotational energy       = 4.157339211e-21
    Average vibrational energy      = 4.018063925e-24
    Average electronic energy       = 0
    Total energy                    = 0.006498832947

Stage 1.0  ExecutionTime = 212.4 s  ClockTime = 212 s  Iteration 1170 (0.15 s)

Time = 0.00118

    Collisions                      = 2236

    Number of DSMC particles        = 127861
    Number of stuck particles       = 0
    Number of free particles        = 127861
    Average linear kinetic energy   = 9.749738602e-20
    Average rotational energy       = 4.153251307e-21
    Average vibrational energy      = 4.018063925e-24
    Average electronic energy       = 0
    Total energy                    = 0.006498832947

Stage 1.0  ExecutionTime = 213.76 s  ClockTime = 214 s  Iteration 1180 (0.14 s)

Time = 0.00119

    Collisions                      = 2171

    Number of DSMC particles        = 127861
    Number of stuck particles       = 0
    Number of free particles        = 127861
    Average linear kinetic energy   = 9.749899768e-20
    Average rotational energy       = 4.151639648e-21
    Average vibrational energy      = 4.018063925e-24
    Average electronic energy       = 0
    Total energy                    = 0.006498832947

Stage 1.0  ExecutionTime = 215.13 s  ClockTime = 215 s  Iteration 1190 (0.13 s)

Time = 0.0012

    Collisions                      = 2240

    Number of DSMC particles        = 127861
    Number of stuck particles       = 0
    Number of free particles        = 127861
    Average linear kinetic energy   = 9.750157664e-20
    Average rotational energy       = 4.149060686e-21
    Average vibrational energy      = 4.018063925e-24
    Average electronic energy       = 0
    Total energy                    = 0.006498832947

Stage 1.0  ExecutionTime = 216.52 s  ClockTime = 217 s  Iteration 1200 (0.15 s)

Time = 0.00121

    Collisions                      = 2223

    Number of DSMC particles        = 127861
    Number of stuck particles       = 0
    Number of free particles        = 127861
    Average linear kinetic energy   = 9.750582963e-20
    Average rotational energy       = 4.144807703e-21
    Average vibrational energy      = 4.018063925e-24
    Average electronic energy       = 0
    Total energy                    = 0.006498832947

Stage 1.0  ExecutionTime = 217.89 s  ClockTime = 218 s  Iteration 1210 (0.14 s)

Time = 0.00122

    Collisions                      = 2182

    Number of DSMC particles        = 127861
    Number of stuck particles       = 0
    Number of free particles        = 127861
    Average linear kinetic energy   = 9.750446563e-20
    Average rotational energy       = 4.146171701e-21
    Average vibrational energy      = 4.018063925e-24
    Average electronic energy       = 0
    Total energy                    = 0.006498832947

Stage 1.0  ExecutionTime = 219.26 s  ClockTime = 219 s  Iteration 1220 (0.14 s)

Time = 0.00123

    Collisions                      = 2236

    Number of DSMC particles        = 127861
    Number of stuck particles       = 0
    Number of free particles        = 127861
    Average linear kinetic energy   = 9.750149706e-20
    Average rotational energy       = 4.149140268e-21
    Average vibrational energy      = 4.018063925e-24
    Average electronic energy       = 0
    Total energy                    = 0.006498832947

Stage 1.0  ExecutionTime = 220.64 s  ClockTime = 221 s  Iteration 1230 (0.16 s)

Time = 0.00124

    Collisions                      = 2241

    Number of DSMC particles        = 127861
    Number of stuck particles       = 0
    Number of free particles        = 127861
    Average linear kinetic energy   = 9.750383878e-20
    Average rotational energy       = 4.146798546e-21
    Average vibrational energy      = 4.018063925e-24
    Average electronic energy       = 0
    Total energy                    = 0.006498832947

Stage 1.0  ExecutionTime = 222.03 s  ClockTime = 222 s  Iteration 1240 (0.15 s)

Time = 0.00125

    Collisions                      = 2262

    Number of DSMC particles        = 127861
    Number of stuck particles       = 0
    Number of free particles        = 127861
    Average linear kinetic energy   = 9.750489938e-20
    Average rotational energy       = 4.145737953e-21
    Average vibrational energy      = 4.018063925e-24
    Average electronic energy       = 0
    Total energy                    = 0.006498832947

Stage 1.0  ExecutionTime = 223.39 s  ClockTime = 223 s  Iteration 1250 (0.13 s)

Time = 0.00126

    Collisions                      = 2237

    Number of DSMC particles        = 127861
    Number of stuck particles       = 0
    Number of free particles        = 127861
    Average linear kinetic energy   = 9.750574382e-20
    Average rotational energy       = 4.144893508e-21
    Average vibrational energy      = 4.018063925e-24
    Average electronic energy       = 0
    Total energy                    = 0.006498832947

Stage 1.0  ExecutionTime = 224.76 s  ClockTime = 225 s  Iteration 1260 (0.15 s)

Time = 0.00127

    Collisions                      = 2257

    Number of DSMC particles        = 127861
    Number of stuck particles       = 0
    Number of free particles        = 127861
    Average linear kinetic energy   = 9.750770728e-20
    Average rotational energy       = 4.142930054e-21
    Average vibrational energy      = 4.018063925e-24
    Average electronic energy       = 0
    Total energy                    = 0.006498832947

Stage 1.0  ExecutionTime = 226.15 s  ClockTime = 226 s  Iteration 1270 (0.15 s)

Time = 0.00128

    Collisions                      = 2295

    Number of DSMC particles        = 127861
    Number of stuck particles       = 0
    Number of free particles        = 127861
    Average linear kinetic energy   = 9.750625411e-20
    Average rotational energy       = 4.144383216e-21
    Average vibrational energy      = 4.018063925e-24
    Average electronic energy       = 0
    Total energy                    = 0.006498832947

Stage 1.0  ExecutionTime = 227.52 s  ClockTime = 228 s  Iteration 1280 (0.14 s)

Time = 0.00129

    Collisions                      = 2232

    Number of DSMC particles        = 127861
    Number of stuck particles       = 0
    Number of free particles        = 127861
    Average linear kinetic energy   = 9.74965692e-20
    Average rotational energy       = 4.154068127e-21
    Average vibrational energy      = 4.018063925e-24
    Average electronic energy       = 0
    Total energy                    = 0.006498832947

Stage 1.0  ExecutionTime = 228.88 s  ClockTime = 229 s  Iteration 1290 (0.14 s)

Time = 0.0013

    Collisions                      = 2220

    Number of DSMC particles        = 127861
    Number of stuck particles       = 0
    Number of free particles        = 127861
    Average linear kinetic energy   = 9.749402941e-20
    Average rotational energy       = 4.156607923e-21
    Average vibrational energy      = 4.018063925e-24
    Average electronic energy       = 0
    Total energy                    = 0.006498832947

Stage 1.0  ExecutionTime = 230.26 s  ClockTime = 230 s  Iteration 1300 (0.15 s)

Time = 0.00131

    Collisions                      = 2208

    Number of DSMC particles        = 127861
    Number of stuck particles       = 0
    Number of free particles        = 127861
    Average linear kinetic energy   = 9.748729484e-20
    Average rotational energy       = 4.163342491e-21
    Average vibrational energy      = 4.018063925e-24
    Average electronic energy       = 0
    Total energy                    = 0.006498832947

Stage 1.0  ExecutionTime = 231.64 s  ClockTime = 232 s  Iteration 1310 (0.15 s)

Time = 0.00132

    Collisions                      = 2290

    Number of DSMC particles        = 127861
    Number of stuck particles       = 0
    Number of free particles        = 127861
    Average linear kinetic energy   = 9.749042417e-20
    Average rotational energy       = 4.160213162e-21
    Average vibrational energy      = 4.018063925e-24
    Average electronic energy       = 0
    Total energy                    = 0.006498832947

Stage 1.0  ExecutionTime = 233.02 s  ClockTime = 233 s  Iteration 1320 (0.15 s)

Time = 0.00133

    Collisions                      = 2268

    Number of DSMC particles        = 127861
    Number of stuck particles       = 0
    Number of free particles        = 127861
    Average linear kinetic energy   = 9.748570332e-20
    Average rotational energy       = 4.164934006e-21
    Average vibrational energy      = 4.018063925e-24
    Average electronic energy       = 0
    Total energy                    = 0.006498832947

Stage 1.0  ExecutionTime = 234.39 s  ClockTime = 234 s  Iteration 1330 (0.15 s)

Time = 0.00134

    Collisions                      = 2181

    Number of DSMC particles        = 127861
    Number of stuck particles       = 0
    Number of free particles        = 127861
    Average linear kinetic energy   = 9.74916145e-20
    Average rotational energy       = 4.159022826e-21
    Average vibrational energy      = 4.018063925e-24
    Average electronic energy       = 0
    Total energy                    = 0.006498832947

Stage 1.0  ExecutionTime = 235.76 s  ClockTime = 236 s  Iteration 1340 (0.14 s)

Time = 0.00135

    Collisions                      = 2254

    Number of DSMC particles        = 127861
    Number of stuck particles       = 0
    Number of free particles        = 127861
    Average linear kinetic energy   = 9.749013973e-20
    Average rotational energy       = 4.160497604e-21
    Average vibrational energy      = 4.018063925e-24
    Average electronic energy       = 0
    Total energy                    = 0.006498832947

Stage 1.0  ExecutionTime = 237.13 s  ClockTime = 237 s  Iteration 1350 (0.14 s)

Time = 0.00136

    Collisions                      = 2214

    Number of DSMC particles        = 127861
    Number of stuck particles       = 0
    Number of free particles        = 127861
    Average linear kinetic energy   = 9.748778702e-20
    Average rotational energy       = 4.162850306e-21
    Average vibrational energy      = 4.018063925e-24
    Average electronic energy       = 0
    Total energy                    = 0.006498832947

Stage 1.0  ExecutionTime = 238.49 s  ClockTime = 239 s  Iteration 1360 (0.14 s)

Time = 0.00137

    Collisions                      = 2212

    Number of DSMC particles        = 127861
    Number of stuck particles       = 0
    Number of free particles        = 127861
    Average linear kinetic energy   = 9.748877638e-20
    Average rotational energy       = 4.161860952e-21
    Average vibrational energy      = 4.018063925e-24
    Average electronic energy       = 0
    Total energy                    = 0.006498832947

Stage 1.0  ExecutionTime = 239.87 s  ClockTime = 240 s  Iteration 1370 (0.14 s)

Time = 0.00138

    Collisions                      = 2281

    Number of DSMC particles        = 127861
    Number of stuck particles       = 0
    Number of free particles        = 127861
    Average linear kinetic energy   = 9.749022185e-20
    Average rotational energy       = 4.160415481e-21
    Average vibrational energy      = 4.018063925e-24
    Average electronic energy       = 0
    Total energy                    = 0.006498832947

Stage 1.0  ExecutionTime = 241.26 s  ClockTime = 241 s  Iteration 1380 (0.16 s)

Time = 0.00139

    Collisions                      = 2233

    Number of DSMC particles        = 127861
    Number of stuck particles       = 0
    Number of free particles        = 127861
    Average linear kinetic energy   = 9.748927686e-20
    Average rotational energy       = 4.161360467e-21
    Average vibrational energy      = 4.018063925e-24
    Average electronic energy       = 0
    Total energy                    = 0.006498832947

Stage 1.0  ExecutionTime = 242.62 s  ClockTime = 243 s  Iteration 1390 (0.14 s)

Time = 0.0014

    Collisions                      = 2212

    Number of DSMC particles        = 127861
    Number of stuck particles       = 0
    Number of free particles        = 127861
    Average linear kinetic energy   = 9.748499112e-20
    Average rotational energy       = 4.165646208e-21
    Average vibrational energy      = 4.018063925e-24
    Average electronic energy       = 0
    Total energy                    = 0.006498832947

Stage 1.0  ExecutionTime = 243.99 s  ClockTime = 244 s  Iteration 1400 (0.14 s)

Time = 0.00141

    Collisions                      = 2242

    Number of DSMC particles        = 127861
    Number of stuck particles       = 0
    Number of free particles        = 127861
    Average linear kinetic energy   = 9.74916527e-20
    Average rotational energy       = 4.158984625e-21
    Average vibrational energy      = 4.018063925e-24
    Average electronic energy       = 0
    Total energy                    = 0.006498832947

Stage 1.0  ExecutionTime = 245.38 s  ClockTime = 245 s  Iteration 1410 (0.15 s)

Time = 0.00142

    Collisions                      = 2217

    Number of DSMC particles        = 127861
    Number of stuck particles       = 0
    Number of free particles        = 127861
    Average linear kinetic energy   = 9.749206212e-20
    Average rotational energy       = 4.15857521e-21
    Average vibrational energy      = 4.018063925e-24
    Average electronic energy       = 0
    Total energy                    = 0.006498832947

Stage 1.0  ExecutionTime = 246.76 s  ClockTime = 247 s  Iteration 1420 (0.14 s)

Time = 0.00143

    Collisions                      = 2280

    Number of DSMC particles        = 127861
    Number of stuck particles       = 0
    Number of free particles        = 127861
    Average linear kinetic energy   = 9.74916887e-20
    Average rotational energy       = 4.158948625e-21
    Average vibrational energy      = 4.018063925e-24
    Average electronic energy       = 0
    Total energy                    = 0.006498832947

Stage 1.0  ExecutionTime = 248.13 s  ClockTime = 248 s  Iteration 1430 (0.14 s)

Time = 0.00144

    Collisions                      = 2191

    Number of DSMC particles        = 127861
    Number of stuck particles       = 0
    Number of free particles        = 127861
    Average linear kinetic energy   = 9.749395927e-20
    Average rotational energy       = 4.156678062e-21
    Average vibrational energy      = 4.018063925e-24
    Average electronic energy       = 0
    Total energy                    = 0.006498832947

Stage 1.0  ExecutionTime = 249.51 s  ClockTime = 250 s  Iteration 1440 (0.15 s)

Time = 0.00145

    Collisions                      = 2309

    Number of DSMC particles        = 127861
    Number of stuck particles       = 0
    Number of free particles        = 127861
    Average linear kinetic energy   = 9.749714922e-20
    Average rotational energy       = 4.153488106e-21
    Average vibrational energy      = 4.018063925e-24
    Average electronic energy       = 0
    Total energy                    = 0.006498832947

Stage 1.0  ExecutionTime = 250.89 s  ClockTime = 251 s  Iteration 1450 (0.15 s)

Time = 0.00146

    Collisions                      = 2258

    Number of DSMC particles        = 127861
    Number of stuck particles       = 0
    Number of free particles        = 127861
    Average linear kinetic energy   = 9.74887457e-20
    Average rotational energy       = 4.161891634e-21
    Average vibrational energy      = 4.018063925e-24
    Average electronic energy       = 0
    Total energy                    = 0.006498832947

Stage 1.0  ExecutionTime = 252.26 s  ClockTime = 252 s  Iteration 1460 (0.14 s)

Time = 0.00147

    Collisions                      = 2225

    Number of DSMC particles        = 127861
    Number of stuck particles       = 0
    Number of free particles        = 127861
    Average linear kinetic energy   = 9.749381289e-20
    Average rotational energy       = 4.156824441e-21
    Average vibrational energy      = 4.018063925e-24
    Average electronic energy       = 0
    Total energy                    = 0.006498832947

[...]
    Average rotational energy       = 4.145090292e-21
    Average vibrational energy      = 4.018063925e-24
    Average electronic energy       = 0
    Total energy                    = 0.006498832947

Stage 1.0  ExecutionTime = 3349.98 s  ClockTime = 3351 s  Iteration 19630 (0.19 s)

Time = 0.01964

    Collisions                      = 2163

    Number of DSMC particles        = 127861
    Number of stuck particles       = 0
    Number of free particles        = 127861
    Average linear kinetic energy   = 9.749949373e-20
    Average rotational energy       = 4.151143604e-21
    Average vibrational energy      = 4.018063925e-24
    Average electronic energy       = 0
    Total energy                    = 0.006498832947

Stage 1.0  ExecutionTime = 3351.86 s  ClockTime = 3353 s  Iteration 19640 (0.19 s)

Time = 0.01965

    Collisions                      = 2298

    Number of DSMC particles        = 127861
    Number of stuck particles       = 0
    Number of free particles        = 127861
    Average linear kinetic energy   = 9.750086322e-20
    Average rotational energy       = 4.14977411e-21
    Average vibrational energy      = 4.018063925e-24
    Average electronic energy       = 0
    Total energy                    = 0.006498832947

Stage 1.0  ExecutionTime = 3353.73 s  ClockTime = 3355 s  Iteration 19650 (0.21 s)

Time = 0.01966

    Collisions                      = 2156

    Number of DSMC particles        = 127861
    Number of stuck particles       = 0
    Number of free particles        = 127861
    Average linear kinetic energy   = 9.750052786e-20
    Average rotational energy       = 4.150109474e-21
    Average vibrational energy      = 4.018063925e-24
    Average electronic energy       = 0
    Total energy                    = 0.006498832947

Stage 1.0  ExecutionTime = 3355.59 s  ClockTime = 3357 s  Iteration 19660 (0.19 s)

Time = 0.01967

    Collisions                      = 2281

    Number of DSMC particles        = 127861
    Number of stuck particles       = 0
    Number of free particles        = 127861
    Average linear kinetic energy   = 9.750276593e-20
    Average rotational energy       = 4.1478714e-21
    Average vibrational energy      = 4.018063925e-24
    Average electronic energy       = 0
    Total energy                    = 0.006498832947

Stage 1.0  ExecutionTime = 3357.47 s  ClockTime = 3358 s  Iteration 19670 (0.19 s)

Time = 0.01968

    Collisions                      = 2208

    Number of DSMC particles        = 127861
    Number of stuck particles       = 0
    Number of free particles        = 127861
    Average linear kinetic energy   = 9.749987753e-20
    Average rotational energy       = 4.150759804e-21
    Average vibrational energy      = 4.018063925e-24
    Average electronic energy       = 0
    Total energy                    = 0.006498832947

Stage 1.0  ExecutionTime = 3359.34 s  ClockTime = 3360 s  Iteration 19680 (0.2 s)

Time = 0.01969

    Collisions                      = 2265

    Number of DSMC particles        = 127861
    Number of stuck particles       = 0
    Number of free particles        = 127861
    Average linear kinetic energy   = 9.750240159e-20
    Average rotational energy       = 4.148235738e-21
    Average vibrational energy      = 4.018063925e-24
    Average electronic energy       = 0
    Total energy                    = 0.006498832947

Stage 1.0  ExecutionTime = 3361.21 s  ClockTime = 3362 s  Iteration 19690 (0.2 s)

Time = 0.0197

    Collisions                      = 2252

    Number of DSMC particles        = 127861
    Number of stuck particles       = 0
    Number of free particles        = 127861
    Average linear kinetic energy   = 9.750387985e-20
    Average rotational energy       = 4.146757476e-21
    Average vibrational energy      = 4.018063925e-24
    Average electronic energy       = 0
    Total energy                    = 0.006498832947

Stage 1.0  ExecutionTime = 3363.08 s  ClockTime = 3364 s  Iteration 19700 (0.21 s)

Time = 0.01971

    Collisions                      = 2247

    Number of DSMC particles        = 127861
    Number of stuck particles       = 0
    Number of free particles        = 127861
    Average linear kinetic energy   = 9.750378411e-20
    Average rotational energy       = 4.146853218e-21
    Average vibrational energy      = 4.018063925e-24
    Average electronic energy       = 0
    Total energy                    = 0.006498832947

Stage 1.0  ExecutionTime = 3364.94 s  ClockTime = 3366 s  Iteration 19710 (0.19 s)

Time = 0.01972

    Collisions                      = 2250

    Number of DSMC particles        = 127861
    Number of stuck particles       = 0
    Number of free particles        = 127861
    Average linear kinetic energy   = 9.749894585e-20
    Average rotational energy       = 4.151691479e-21
    Average vibrational energy      = 4.018063925e-24
    Average electronic energy       = 0
    Total energy                    = 0.006498832947

Stage 1.0  ExecutionTime = 3366.83 s  ClockTime = 3368 s  Iteration 19720 (0.19 s)

Time = 0.01973

    Collisions                      = 2234

    Number of DSMC particles        = 127861
    Number of stuck particles       = 0
    Number of free particles        = 127861
    Average linear kinetic energy   = 9.749464929e-20
    Average rotational energy       = 4.15598804e-21
    Average vibrational energy      = 4.018063925e-24
    Average electronic energy       = 0
    Total energy                    = 0.006498832947

Stage 1.0  ExecutionTime = 3368.7 s  ClockTime = 3370 s  Iteration 19730 (0.19 s)

Time = 0.01974

    Collisions                      = 2159

    Number of DSMC particles        = 127861
    Number of stuck particles       = 0
    Number of free particles        = 127861
    Average linear kinetic energy   = 9.749757363e-20
    Average rotational energy       = 4.153063699e-21
    Average vibrational energy      = 4.018063925e-24
    Average electronic energy       = 0
    Total energy                    = 0.006498832947

Stage 1.0  ExecutionTime = 3370.57 s  ClockTime = 3372 s  Iteration 19740 (0.19 s)

Time = 0.01975

    Collisions                      = 2229

    Number of DSMC particles        = 127861
    Number of stuck particles       = 0
    Number of free particles        = 127861
    Average linear kinetic energy   = 9.749270238e-20
    Average rotational energy       = 4.157934947e-21
    Average vibrational energy      = 4.018063925e-24
    Average electronic energy       = 0
    Total energy                    = 0.006498832947

Stage 1.0  ExecutionTime = 3372.43 s  ClockTime = 3373 s  Iteration 19750 (0.18 s)

Time = 0.01976

    Collisions                      = 2234

    Number of DSMC particles        = 127861
    Number of stuck particles       = 0
    Number of free particles        = 127861
    Average linear kinetic energy   = 9.749385506e-20
    Average rotational energy       = 4.156782268e-21
    Average vibrational energy      = 4.018063925e-24
    Average electronic energy       = 0
    Total energy                    = 0.006498832947

Stage 1.0  ExecutionTime = 3374.31 s  ClockTime = 3375 s  Iteration 19760 (0.19 s)

Time = 0.01977

    Collisions                      = 2306

    Number of DSMC particles        = 127861
    Number of stuck particles       = 0
    Number of free particles        = 127861
    Average linear kinetic energy   = 9.749481432e-20
    Average rotational energy       = 4.15582301e-21
    Average vibrational energy      = 4.018063925e-24
    Average electronic energy       = 0
    Total energy                    = 0.006498832947

Stage 1.0  ExecutionTime = 3376.19 s  ClockTime = 3377 s  Iteration 19770 (0.2 s)

Time = 0.01978

    Collisions                      = 2296

    Number of DSMC particles        = 127861
    Number of stuck particles       = 0
    Number of free particles        = 127861
    Average linear kinetic energy   = 9.749113264e-20
    Average rotational energy       = 4.159504689e-21
    Average vibrational energy      = 4.018063925e-24
    Average electronic energy       = 0
    Total energy                    = 0.006498832947

Stage 1.0  ExecutionTime = 3378.05 s  ClockTime = 3379 s  Iteration 19780 (0.21 s)

Time = 0.01979

    Collisions                      = 2277

    Number of DSMC particles        = 127861
    Number of stuck particles       = 0
    Number of free particles        = 127861
    Average linear kinetic energy   = 9.749472316e-20
    Average rotational energy       = 4.155914174e-21
    Average vibrational energy      = 4.018063925e-24
    Average electronic energy       = 0
    Total energy                    = 0.006498832947

Stage 1.0  ExecutionTime = 3379.92 s  ClockTime = 3381 s  Iteration 19790 (0.2 s)

Time = 0.0198

    Collisions                      = 2277

    Number of DSMC particles        = 127861
    Number of stuck particles       = 0
    Number of free particles        = 127861
    Average linear kinetic energy   = 9.749528837e-20
    Average rotational energy       = 4.15534896e-21
    Average vibrational energy      = 4.018063925e-24
    Average electronic energy       = 0
    Total energy                    = 0.006498832947

Stage 1.0  ExecutionTime = 3381.81 s  ClockTime = 3383 s  Iteration 19800 (0.2 s)

Time = 0.01981

    Collisions                      = 2266

    Number of DSMC particles        = 127861
    Number of stuck particles       = 0
    Number of free particles        = 127861
    Average linear kinetic energy   = 9.749186057e-20
    Average rotational energy       = 4.158776758e-21
    Average vibrational energy      = 4.018063925e-24
    Average electronic energy       = 0
    Total energy                    = 0.006498832947

Stage 1.0  ExecutionTime = 3383.65 s  ClockTime = 3385 s  Iteration 19810 (0.2 s)

Time = 0.01982

    Collisions                      = 2281

    Number of DSMC particles        = 127861
    Number of stuck particles       = 0
    Number of free particles        = 127861
    Average linear kinetic energy   = 9.749755825e-20
    Average rotational energy       = 4.153079085e-21
    Average vibrational energy      = 4.018063925e-24
    Average electronic energy       = 0
    Total energy                    = 0.006498832947

Stage 1.0  ExecutionTime = 3385.52 s  ClockTime = 3387 s  Iteration 19820 (0.2 s)

Time = 0.01983

    Collisions                      = 2294

    Number of DSMC particles        = 127861
    Number of stuck particles       = 0
    Number of free particles        = 127861
    Average linear kinetic energy   = 9.749922763e-20
    Average rotational energy       = 4.151409704e-21
    Average vibrational energy      = 4.018063925e-24
    Average electronic energy       = 0
    Total energy                    = 0.006498832947

Stage 1.0  ExecutionTime = 3387.38 s  ClockTime = 3388 s  Iteration 19830 (0.2 s)

Time = 0.01984

    Collisions                      = 2187

    Number of DSMC particles        = 127861
    Number of stuck particles       = 0
    Number of free particles        = 127861
    Average linear kinetic energy   = 9.749946633e-20
    Average rotational energy       = 4.151170998e-21
    Average vibrational energy      = 4.018063925e-24
    Average electronic energy       = 0
    Total energy                    = 0.006498832947

Stage 1.0  ExecutionTime = 3389.24 s  ClockTime = 3390 s  Iteration 19840 (0.19 s)

Time = 0.01985

    Collisions                      = 2238

    Number of DSMC particles        = 127861
    Number of stuck particles       = 0
    Number of free particles        = 127861
    Average linear kinetic energy   = 9.750204186e-20
    Average rotational energy       = 4.148595467e-21
    Average vibrational energy      = 4.018063925e-24
    Average electronic energy       = 0
    Total energy                    = 0.006498832947

Stage 1.0  ExecutionTime = 3391.1 s  ClockTime = 3392 s  Iteration 19850 (0.19 s)

Time = 0.01986

    Collisions                      = 2321

    Number of DSMC particles        = 127861
    Number of stuck particles       = 0
    Number of free particles        = 127861
    Average linear kinetic energy   = 9.750108152e-20
    Average rotational energy       = 4.149555806e-21
    Average vibrational energy      = 4.018063925e-24
    Average electronic energy       = 0
    Total energy                    = 0.006498832947

Stage 1.0  ExecutionTime = 3392.97 s  ClockTime = 3394 s  Iteration 19860 (0.2 s)

Time = 0.01987

    Collisions                      = 2182

    Number of DSMC particles        = 127861
    Number of stuck particles       = 0
    Number of free particles        = 127861
    Average linear kinetic energy   = 9.749714822e-20
    Average rotational energy       = 4.15348911e-21
    Average vibrational energy      = 4.018063925e-24
    Average electronic energy       = 0
    Total energy                    = 0.006498832947

Stage 1.0  ExecutionTime = 3394.82 s  ClockTime = 3396 s  Iteration 19870 (0.2 s)

Time = 0.01988

    Collisions                      = 2257

    Number of DSMC particles        = 127861
    Number of stuck particles       = 0
    Number of free particles        = 127861
    Average linear kinetic energy   = 9.750137918e-20
    Average rotational energy       = 4.149258151e-21
    Average vibrational energy      = 4.018063925e-24
    Average electronic energy       = 0
    Total energy                    = 0.006498832947

Stage 1.0  ExecutionTime = 3396.68 s  ClockTime = 3398 s  Iteration 19880 (0.19 s)

Time = 0.01989

    Collisions                      = 2222

    Number of DSMC particles        = 127861
    Number of stuck particles       = 0
    Number of free particles        = 127861
    Average linear kinetic energy   = 9.749868977e-20
    Average rotational energy       = 4.151947559e-21
    Average vibrational energy      = 4.018063925e-24
    Average electronic energy       = 0
    Total energy                    = 0.006498832947

Stage 1.0  ExecutionTime = 3398.54 s  ClockTime = 3400 s  Iteration 19890 (0.19 s)

Time = 0.0199

    Collisions                      = 2248

    Number of DSMC particles        = 127861
    Number of stuck particles       = 0
    Number of free particles        = 127861
    Average linear kinetic energy   = 9.749627322e-20
    Average rotational energy       = 4.154364113e-21
    Average vibrational energy      = 4.018063925e-24
    Average electronic energy       = 0
    Total energy                    = 0.006498832947

Stage 1.0  ExecutionTime = 3400.4 s  ClockTime = 3401 s  Iteration 19900 (0.2 s)

Time = 0.01991

    Collisions                      = 2288

    Number of DSMC particles        = 127861
    Number of stuck particles       = 0
    Number of free particles        = 127861
    Average linear kinetic energy   = 9.74971549e-20
    Average rotational energy       = 4.153482427e-21
    Average vibrational energy      = 4.018063925e-24
    Average electronic energy       = 0
    Total energy                    = 0.006498832947

Stage 1.0  ExecutionTime = 3402.27 s  ClockTime = 3403 s  Iteration 19910 (0.21 s)

Time = 0.01992

    Collisions                      = 2248

    Number of DSMC particles        = 127861
    Number of stuck particles       = 0
    Number of free particles        = 127861
    Average linear kinetic energy   = 9.750051545e-20
    Average rotational energy       = 4.150121881e-21
    Average vibrational energy      = 4.018063925e-24
    Average electronic energy       = 0
    Total energy                    = 0.006498832947

Stage 1.0  ExecutionTime = 3404.12 s  ClockTime = 3405 s  Iteration 19920 (0.2 s)

Time = 0.01993

    Collisions                      = 2209

    Number of DSMC particles        = 127861
    Number of stuck particles       = 0
    Number of free particles        = 127861
    Average linear kinetic energy   = 9.750063572e-20
    Average rotational energy       = 4.150001611e-21
    Average vibrational energy      = 4.018063925e-24
    Average electronic energy       = 0
    Total energy                    = 0.006498832947

Stage 1.0  ExecutionTime = 3405.98 s  ClockTime = 3407 s  Iteration 19930 (0.2 s)

Time = 0.01994

    Collisions                      = 2207

    Number of DSMC particles        = 127861
    Number of stuck particles       = 0
    Number of free particles        = 127861
    Average linear kinetic energy   = 9.750488796e-20
    Average rotational energy       = 4.145749373e-21
    Average vibrational energy      = 4.018063925e-24
    Average electronic energy       = 0
    Total energy                    = 0.006498832947

Stage 1.0  ExecutionTime = 3407.85 s  ClockTime = 3409 s  Iteration 19940 (0.19 s)

Time = 0.01995

    Collisions                      = 2260

    Number of DSMC particles        = 127861
    Number of stuck particles       = 0
    Number of free particles        = 127861
    Average linear kinetic energy   = 9.750272471e-20
    Average rotational energy       = 4.147912615e-21
    Average vibrational energy      = 4.018063925e-24
    Average electronic energy       = 0
    Total energy                    = 0.006498832947

Stage 1.0  ExecutionTime = 3409.71 s  ClockTime = 3411 s  Iteration 19950 (0.2 s)

Time = 0.01996

    Collisions                      = 2212

    Number of DSMC particles        = 127861
    Number of stuck particles       = 0
    Number of free particles        = 127861
    Average linear kinetic energy   = 9.751318255e-20
    Average rotational energy       = 4.137454778e-21
    Average vibrational energy      = 4.018063925e-24
    Average electronic energy       = 0
    Total energy                    = 0.006498832947

Stage 1.0  ExecutionTime = 3411.56 s  ClockTime = 3413 s  Iteration 19960 (0.2 s)

Time = 0.01997

    Collisions                      = 2227

    Number of DSMC particles        = 127861
    Number of stuck particles       = 0
    Number of free particles        = 127861
    Average linear kinetic energy   = 9.751589115e-20
    Average rotational energy       = 4.134746175e-21
    Average vibrational energy      = 4.018063925e-24
    Average electronic energy       = 0
    Total energy                    = 0.006498832947

Stage 1.0  ExecutionTime = 3413.42 s  ClockTime = 3414 s  Iteration 19970 (0.19 s)

Time = 0.01998

    Collisions                      = 2215

    Number of DSMC particles        = 127861
    Number of stuck particles       = 0
    Number of free particles        = 127861
    Average linear kinetic energy   = 9.751889057e-20
    Average rotational energy       = 4.13174676e-21
    Average vibrational energy      = 4.018063925e-24
    Average electronic energy       = 0
    Total energy                    = 0.006498832947

Stage 1.0  ExecutionTime = 3415.28 s  ClockTime = 3416 s  Iteration 19980 (0.19 s)

Time = 0.01999

    Collisions                      = 2214

    Number of DSMC particles        = 127861
    Number of stuck particles       = 0
    Number of free particles        = 127861
    Average linear kinetic energy   = 9.752136135e-20
    Average rotational energy       = 4.129275982e-21
    Average vibrational energy      = 4.018063925e-24
    Average electronic energy       = 0
    Total energy                    = 0.006498832947

Stage 1.0  ExecutionTime = 3417.15 s  ClockTime = 3418 s  Iteration 19990 (0.19 s)

Time = 0.02

    Collisions                      = 2228

    Number of DSMC particles        = 127861
    Number of stuck particles       = 0
    Number of free particles        = 127861
    Average linear kinetic energy   = 9.751751572e-20
    Average rotational energy       = 4.133121614e-21
    Average vibrational energy      = 4.018063925e-24
    Average electronic energy       = 0
    Total energy                    = 0.006498832947

Stage 1.0  ExecutionTime = 3419.87 s  ClockTime = 3421 s  Iteration 20000 (1.08 s)

    Maximum imbalance = 0.1149685987%
End stage 1

Total Iterations = 20000
End main

Finalising parallel run
