/*---------------------------------------------------------------------------*\
| =========                 |                                                 |
| \\      /  F ield         | OpenFOAM: The Open Source CFD Toolbox           |
|  \\    /   O peration     | Version:  v1706                                 |
|   \\  /    A nd           | Web:      www.OpenFOAM.com                      |
|    \\/     M anipulation  |                                                 |
\*---------------------------------------------------------------------------*/
Build  : v1706
Arch   : "LSB;label=32;scalar=64"
Exec   : hy2MhdFoam -parallel
Date   : Jan 18 2019
Time   : 15:01:54
Host   : "Galileo"
PID    : 17946
Case   : /home/vincent/OpenFOAM/vincent-v1706/mhdIoffe/run/hyStrath/hy2MhdFoam/NASA_MSL_forebody_NR-MHD
nProcs : 4
Slaves : 
3
(
"Galileo.17947"
"Galileo.17948"
"Galileo.17949"
)

Pstream initialized with:
    floatTransfer      : 0
    nProcsSimpleSum    : 0
    commsType          : nonBlocking
    polling iterations : 0
sigFpe : Enabling floating point exception trapping (FOAM_SIGFPE).
fileModificationChecking : Monitoring run-time modified files using timeStampMaster (fileModificationSkew 10)
allowSystemOperations : Allowing user-supplied system call operations

// * * * * * * * * * * * * * * * * * * * * * * * * * * * * * * * * * * * * * //
Create time

Create mesh for time = 0.00143

Creating reaction model

Selecting hTC model laminar2<rho2ChemistryHTC>
Selecting chemistry type 
{
    chemistrySolver Euler2Implicit;
    chemistryThermo rho2;
}

Selecting thermodynamics package 
{
    type            heRho2Thermo;
    mixture         reacting2Mixture;
    transport       powerLawEucken;
    thermo          decoupledEnergyModes;
    energy          sensible2InternalEnergy;
    equationOfState perfect2Gas;
    specie          advancedSpecie;
}

Selecting chemistry2Reader foam2ChemistryReader
chemistry2Model: Number of species = 3 and reactions = 0
    using integrated reaction rate

Reading thermophysical properties

Reading field U

Creating turbulence model

Selecting turbulence model type laminar
Selecting laminar stress model Stokes

Loading the transport mixing rule:	Wilke

Loading the rarefaction parameters library

Loading the multispecies transport model:	noSpeciesDiffusion

Loading the V-T relaxation time model:	LandauTellerVT

Loading the h-e relaxation time model	noHEEnergyTransfer

Mhd model: lowReMag
Conductivity model: Bush
Creating MHD model

Selector 2: Selecting mhdModel lowReMag
Selector 2 returning
Constructor 1 was used
conductivity model initialising.
Looking for conductivityModel name 
Selecting conductivityModel Bush
Creating Bush conductivity model
conductivity model initialised.
Getting conductivity values from the model
Conductivity values retrieved. Max(sigma) = max(sigma) [-1 -3 3 0 0 2 0] 5066.820043
No finite volume options present

fluxScheme: Kurganov
Mean and max Courant Numbers = 0.01718640157 0.3001838823

Starting time loop

forces forces:
    Not including porosity effects
forces forceCoeffs:
    Not including porosity effects
forceCoeffs forceCoeffs:
    Not including porosity effects

wallShearStress wallShearStress:
    processing wall patches: 
        object

Mean and max Courant Numbers = 0.01718640157 0.3001838823
deltaT = 1.569858713e-08
Time = 0.001430015699

diagonal:  Solving for rho, Initial residual = 0, Final residual = 0, No Iterations 0
diagonal:  Solving for rhoUx, Initial residual = 0, Final residual = 0, No Iterations 0
diagonal:  Solving for rhoUy, Initial residual = 0, Final residual = 0, No Iterations 0
diagonal:  Solving for rhoUz, Initial residual = 0, Final residual = 0, No Iterations 0
Calculating momentum equation MHD term

max(nD_e-) [0 -3 0 0 0 0 0] 0
min(betaHall) [0 0 0 0 0 0 0] 0
Calculating D

min(D) [2 0 -4 0 0 -2 0] 0.00015925001
Hall tensor allocated

max(hallParameter) [0 0 0 0 0 0 0] (1 0 -0 -0 1 -0 0 0 1)
Returning current density with Hall correction

smoothSolver:  Solving for Ux, Initial residual = 1.980376563e-06, Final residual = 1.271384016e-15, No Iterations 2
smoothSolver:  Solving for Uy, Initial residual = 3.740813028e-06, Final residual = 2.341650361e-15, No Iterations 2
smoothSolver:  Solving for Uz, Initial residual = 0.0002779020311, Final residual = 2.252964861e-13, No Iterations 2
diagonal:  Solving for rhoEv, Initial residual = 0, Final residual = 0, No Iterations 0
Calculating energy equation MHD term

max(nD_e-) [0 -3 0 0 0 0 0] 0
min(betaHall) [0 0 0 0 0 0 0] 0
Calculating D

min(D) [2 0 -4 0 0 -2 0] 0.00015925001
Hall tensor allocated

max(hallParameter) [0 0 0 0 0 0 0] (1 0 -0 -0 1 -0 0 0 1)
Returning current density with Hall correction

diagonal:  Solving for rhoE, Initial residual = 0, Final residual = 0, No Iterations 0
Q_mag is working. max(Q_mag) = Calculating energy equation MHD term

max(nD_e-) [0 -3 0 0 0 0 0] 0
min(betaHall) [0 0 0 0 0 0 0] 0
Calculating D

min(D) [2 0 -4 0 0 -2 0] 0.00015925001
Hall tensor allocated

max(hallParameter) [0 0 0 0 0 0 0] (1 0 -0 -0 1 -0 0 0 1)
Returning current density with Hall correction

max(Q) [1 -1 -3 0 0 0 0] 652625421.3
smoothSolver:  Solving for hevel, Initial residual = 8.827148882e-08, Final residual = 9.69716286e-17, No Iterations 2
Q_mag is working
smoothSolver:  Solving for e, Initial residual = 1.124896113e-07, Final residual = 4.513880073e-16, No Iterations 2
Phase no 1.0  ExecutionTime = 2.27 s  ClockTime = 2 s  Iteration no 1 (2.27 s)

Mean and max Courant Numbers = 0.01718638385 0.3001845554
deltaT = 1.569858713e-08
Time = 0.001430031397

diagonal:  Solving for rho, Initial residual = 0, Final residual = 0, No Iterations 0
diagonal:  Solving for rhoUx, Initial residual = 0, Final residual = 0, No Iterations 0
diagonal:  Solving for rhoUy, Initial residual = 0, Final residual = 0, No Iterations 0
diagonal:  Solving for rhoUz, Initial residual = 0, Final residual = 0, No Iterations 0
Calculating momentum equation MHD term

max(nD_e-) [0 -3 0 0 0 0 0] 0
min(betaHall) [0 0 0 0 0 0 0] 0
Calculating D

min(D) [2 0 -4 0 0 -2 0] 0.00015925001
Hall tensor allocated

max(hallParameter) [0 0 0 0 0 0 0] (1 0 -0 -0 1 -0 0 0 1)
Returning current density with Hall correction

smoothSolver:  Solving for Ux, Initial residual = 1.980342396e-06, Final residual = 1.271032276e-15, No Iterations 2
smoothSolver:  Solving for Uy, Initial residual = 3.740721694e-06, Final residual = 2.3413416e-15, No Iterations 2
smoothSolver:  Solving for Uz, Initial residual = 0.00027776282, Final residual = 2.25184712e-13, No Iterations 2
diagonal:  Solving for rhoEv, Initial residual = 0, Final residual = 0, No Iterations 0
Calculating energy equation MHD term

max(nD_e-) [0 -3 0 0 0 0 0] 0
min(betaHall) [0 0 0 0 0 0 0] 0
Calculating D

min(D) [2 0 -4 0 0 -2 0] 0.00015925001
Hall tensor allocated

max(hallParameter) [0 0 0 0 0 0 0] (1 0 -0 -0 1 -0 0 0 1)
Returning current density with Hall correction

diagonal:  Solving for rhoE, Initial residual = 0, Final residual = 0, No Iterations 0
Q_mag is working. max(Q_mag) = Calculating energy equation MHD term

max(nD_e-) [0 -3 0 0 0 0 0] 0
min(betaHall) [0 0 0 0 0 0 0] 0
Calculating D

min(D) [2 0 -4 0 0 -2 0] 0.00015925001
Hall tensor allocated

max(hallParameter) [0 0 0 0 0 0 0] (1 0 -0 -0 1 -0 0 0 1)
Returning current density with Hall correction

max(Q) [1 -1 -3 0 0 0 0] 652616444
smoothSolver:  Solving for hevel, Initial residual = 8.827136599e-08, Final residual = 9.709526335e-17, No Iterations 2
Q_mag is working
smoothSolver:  Solving for e, Initial residual = 1.124890643e-07, Final residual = 4.515228203e-16, No Iterations 2
Phase no 1.0  ExecutionTime = 3.32 s  ClockTime = 3 s  Iteration no 2 (1.05 s)

Mean and max Courant Numbers = 0.01718636613 0.3001852283
deltaT = 1.569858713e-08
Time = 0.001430047096

diagonal:  Solving for rho, Initial residual = 0, Final residual = 0, No Iterations 0
diagonal:  Solving for rhoUx, Initial residual = 0, Final residual = 0, No Iterations 0
diagonal:  Solving for rhoUy, Initial residual = 0, Final residual = 0, No Iterations 0
diagonal:  Solving for rhoUz, Initial residual = 0, Final residual = 0, No Iterations 0
Calculating momentum equation MHD term

max(nD_e-) [0 -3 0 0 0 0 0] 0
min(betaHall) [0 0 0 0 0 0 0] 0
Calculating D

min(D) [2 0 -4 0 0 -2 0] 0.00015925001
Hall tensor allocated

max(hallParameter) [0 0 0 0 0 0 0] (1 0 -0 -0 1 -0 0 0 1)
Returning current density with Hall correction

smoothSolver:  Solving for Ux, Initial residual = 1.98030945e-06, Final residual = 1.270968283e-15, No Iterations 2
smoothSolver:  Solving for Uy, Initial residual = 3.74063732e-06, Final residual = 2.342035451e-15, No Iterations 2
smoothSolver:  Solving for Uz, Initial residual = 0.0002776237555, Final residual = 2.250739413e-13, No Iterations 2
diagonal:  Solving for rhoEv, Initial residual = 0, Final residual = 0, No Iterations 0
Calculating energy equation MHD term

max(nD_e-) [0 -3 0 0 0 0 0] 0
min(betaHall) [0 0 0 0 0 0 0] 0
Calculating D

min(D) [2 0 -4 0 0 -2 0] 0.00015925001
Hall tensor allocated

max(hallParameter) [0 0 0 0 0 0 0] (1 0 -0 -0 1 -0 0 0 1)
Returning current density with Hall correction

diagonal:  Solving for rhoE, Initial residual = 0, Final residual = 0, No Iterations 0
Q_mag is working. max(Q_mag) = Calculating energy equation MHD term

max(nD_e-) [0 -3 0 0 0 0 0] 0
min(betaHall) [0 0 0 0 0 0 0] 0
Calculating D

min(D) [2 0 -4 0 0 -2 0] 0.00015925001
Hall tensor allocated

max(hallParameter) [0 0 0 0 0 0 0] (1 0 -0 -0 1 -0 0 0 1)
Returning current density with Hall correction

max(Q) [1 -1 -3 0 0 0 0] 652607328.5
smoothSolver:  Solving for hevel, Initial residual = 8.827123829e-08, Final residual = 9.669608054e-17, No Iterations 2
Q_mag is working
smoothSolver:  Solving for e, Initial residual = 1.124885083e-07, Final residual = 4.513792607e-16, No Iterations 2
Phase no 1.0  ExecutionTime = 4.39 s  ClockTime = 4 s  Iteration no 3 (1.07 s)

Mean and max Courant Numbers = 0.0171863484 0.3001859015
deltaT = 1.569858713e-08
Time = 0.001430062794

diagonal:  Solving for rho, Initial residual = 0, Final residual = 0, No Iterations 0
diagonal:  Solving for rhoUx, Initial residual = 0, Final residual = 0, No Iterations 0
diagonal:  Solving for rhoUy, Initial residual = 0, Final residual = 0, No Iterations 0
diagonal:  Solving for rhoUz, Initial residual = 0, Final residual = 0, No Iterations 0
Calculating momentum equation MHD term

max(nD_e-) [0 -3 0 0 0 0 0] 0
min(betaHall) [0 0 0 0 0 0 0] 0
Calculating D

min(D) [2 0 -4 0 0 -2 0] 0.00015925001
Hall tensor allocated

max(hallParameter) [0 0 0 0 0 0 0] (1 0 -0 -0 1 -0 0 0 1)
Returning current density with Hall correction

smoothSolver:  Solving for Ux, Initial residual = 1.980276523e-06, Final residual = 1.270799245e-15, No Iterations 2
smoothSolver:  Solving for Uy, Initial residual = 3.740552996e-06, Final residual = 2.341753282e-15, No Iterations 2
smoothSolver:  Solving for Uz, Initial residual = 0.0002774848354, Final residual = 2.249632697e-13, No Iterations 2
diagonal:  Solving for rhoEv, Initial residual = 0, Final residual = 0, No Iterations 0
Calculating energy equation MHD term

max(nD_e-) [0 -3 0 0 0 0 0] 0
min(betaHall) [0 0 0 0 0 0 0] 0
Calculating D

min(D) [2 0 -4 0 0 -2 0] 0.00015925001
Hall tensor allocated

max(hallParameter) [0 0 0 0 0 0 0] (1 0 -0 -0 1 -0 0 0 1)
Returning current density with Hall correction

diagonal:  Solving for rhoE, Initial residual = 0, Final residual = 0, No Iterations 0
Q_mag is working. max(Q_mag) = Calculating energy equation MHD term

max(nD_e-) [0 -3 0 0 0 0 0] 0
min(betaHall) [0 0 0 0 0 0 0] 0
Calculating D

min(D) [2 0 -4 0 0 -2 0] 0.00015925001
Hall tensor allocated

max(hallParameter) [0 0 0 0 0 0 0] (1 0 -0 -0 1 -0 0 0 1)
Returning current density with Hall correction

max(Q) [1 -1 -3 0 0 0 0] 652598077.9
smoothSolver:  Solving for hevel, Initial residual = 8.827110534e-08, Final residual = 9.753859497e-17, No Iterations 2
Q_mag is working
smoothSolver:  Solving for e, Initial residual = 1.124879433e-07, Final residual = 4.514435261e-16, No Iterations 2
Phase no 1.0  ExecutionTime = 5.51 s  ClockTime = 6 s  Iteration no 4 (1.12 s)

Mean and max Courant Numbers = 0.01718633066 0.3001865748
deltaT = 1.569858713e-08
Time = 0.001430078493

diagonal:  Solving for rho, Initial residual = 0, Final residual = 0, No Iterations 0
diagonal:  Solving for rhoUx, Initial residual = 0, Final residual = 0, No Iterations 0
diagonal:  Solving for rhoUy, Initial residual = 0, Final residual = 0, No Iterations 0
diagonal:  Solving for rhoUz, Initial residual = 0, Final residual = 0, No Iterations 0
Calculating momentum equation MHD term

max(nD_e-) [0 -3 0 0 0 0 0] 0
min(betaHall) [0 0 0 0 0 0 0] 0
Calculating D

min(D) [2 0 -4 0 0 -2 0] 0.00015925001
Hall tensor allocated

max(hallParameter) [0 0 0 0 0 0 0] (1 0 -0 -0 1 -0 0 0 1)
Returning current density with Hall correction

smoothSolver:  Solving for Ux, Initial residual = 1.980243613e-06, Final residual = 1.271162694e-15, No Iterations 2
smoothSolver:  Solving for Uy, Initial residual = 3.740469089e-06, Final residual = 2.341260578e-15, No Iterations 2
smoothSolver:  Solving for Uz, Initial residual = 0.0002773460612, Final residual = 2.248527835e-13, No Iterations 2
diagonal:  Solving for rhoEv, Initial residual = 0, Final residual = 0, No Iterations 0
Calculating energy equation MHD term

max(nD_e-) [0 -3 0 0 0 0 0] 0
min(betaHall) [0 0 0 0 0 0 0] 0
Calculating D

min(D) [2 0 -4 0 0 -2 0] 0.00015925001
Hall tensor allocated

max(hallParameter) [0 0 0 0 0 0 0] (1 0 -0 -0 1 -0 0 0 1)
Returning current density with Hall correction

diagonal:  Solving for rhoE, Initial residual = 0, Final residual = 0, No Iterations 0
Q_mag is working. max(Q_mag) = Calculating energy equation MHD term

max(nD_e-) [0 -3 0 0 0 0 0] 0
min(betaHall) [0 0 0 0 0 0 0] 0
Calculating D

min(D) [2 0 -4 0 0 -2 0] 0.00015925001
Hall tensor allocated

max(hallParameter) [0 0 0 0 0 0 0] (1 0 -0 -0 1 -0 0 0 1)
Returning current density with Hall correction

max(Q) [1 -1 -3 0 0 0 0] 652588692.4
smoothSolver:  Solving for hevel, Initial residual = 8.827096662e-08, Final residual = 9.728080147e-17, No Iterations 2
Q_mag is working
smoothSolver:  Solving for e, Initial residual = 1.124873687e-07, Final residual = 4.516938864e-16, No Iterations 2
Phase no 1.0  ExecutionTime = 6.7 s  ClockTime = 7 s  Iteration no 5 (1.19 s)

Mean and max Courant Numbers = 0.01718631292 0.3001872484
deltaT = 1.569858713e-08
Time = 0.001430094192

diagonal:  Solving for rho, Initial residual = 0, Final residual = 0, No Iterations 0
diagonal:  Solving for rhoUx, Initial residual = 0, Final residual = 0, No Iterations 0
diagonal:  Solving for rhoUy, Initial residual = 0, Final residual = 0, No Iterations 0
diagonal:  Solving for rhoUz, Initial residual = 0, Final residual = 0, No Iterations 0
Calculating momentum equation MHD term

max(nD_e-) [0 -3 0 0 0 0 0] 0
min(betaHall) [0 0 0 0 0 0 0] 0
Calculating D

min(D) [2 0 -4 0 0 -2 0] 0.00015925001
Hall tensor allocated

max(hallParameter) [0 0 0 0 0 0 0] (1 0 -0 -0 1 -0 0 0 1)
Returning current density with Hall correction

smoothSolver:  Solving for Ux, Initial residual = 1.980210723e-06, Final residual = 1.270874562e-15, No Iterations 2
smoothSolver:  Solving for Uy, Initial residual = 3.7403852e-06, Final residual = 2.340878032e-15, No Iterations 2
smoothSolver:  Solving for Uz, Initial residual = 0.0002772074333, Final residual = 2.247418749e-13, No Iterations 2
diagonal:  Solving for rhoEv, Initial residual = 0, Final residual = 0, No Iterations 0
Calculating energy equation MHD term

max(nD_e-) [0 -3 0 0 0 0 0] 0
min(betaHall) [0 0 0 0 0 0 0] 0
Calculating D

min(D) [2 0 -4 0 0 -2 0] 0.00015925001
Hall tensor allocated

max(hallParameter) [0 0 0 0 0 0 0] (1 0 -0 -0 1 -0 0 0 1)
Returning current density with Hall correction

diagonal:  Solving for rhoE, Initial residual = 0, Final residual = 0, No Iterations 0
Q_mag is working. max(Q_mag) = Calculating energy equation MHD term

max(nD_e-) [0 -3 0 0 0 0 0] 0
min(betaHall) [0 0 0 0 0 0 0] 0
Calculating D

min(D) [2 0 -4 0 0 -2 0] 0.00015925001
Hall tensor allocated

max(hallParameter) [0 0 0 0 0 0 0] (1 0 -0 -0 1 -0 0 0 1)
Returning current density with Hall correction

max(Q) [1 -1 -3 0 0 0 0] 652579171.7
smoothSolver:  Solving for hevel, Initial residual = 8.827082157e-08, Final residual = 9.733008127e-17, No Iterations 2
Q_mag is working
smoothSolver:  Solving for e, Initial residual = 1.124867845e-07, Final residual = 4.517810343e-16, No Iterations 2
Phase no 1.0  ExecutionTime = 7.75 s  ClockTime = 8 s  Iteration no 6 (1.05 s)

Mean and max Courant Numbers = 0.01718629517 0.3001879222
deltaT = 1.569858713e-08
Time = 0.00143010989

diagonal:  Solving for rho, Initial residual = 0, Final residual = 0, No Iterations 0
diagonal:  Solving for rhoUx, Initial residual = 0, Final residual = 0, No Iterations 0
diagonal:  Solving for rhoUy, Initial residual = 0, Final residual = 0, No Iterations 0
diagonal:  Solving for rhoUz, Initial residual = 0, Final residual = 0, No Iterations 0
Calculating momentum equation MHD term

max(nD_e-) [0 -3 0 0 0 0 0] 0
min(betaHall) [0 0 0 0 0 0 0] 0
Calculating D

min(D) [2 0 -4 0 0 -2 0] 0.00015925001
Hall tensor allocated

max(hallParameter) [0 0 0 0 0 0 0] (1 0 -0 -0 1 -0 0 0 1)
Returning current density with Hall correction

smoothSolver:  Solving for Ux, Initial residual = 1.98017785e-06, Final residual = 1.271342466e-15, No Iterations 2
smoothSolver:  Solving for Uy, Initial residual = 3.740301329e-06, Final residual = 2.341884506e-15, No Iterations 2
smoothSolver:  Solving for Uz, Initial residual = 0.0002770689493, Final residual = 2.246324743e-13, No Iterations 2
diagonal:  Solving for rhoEv, Initial residual = 0, Final residual = 0, No Iterations 0
Calculating energy equation MHD term

max(nD_e-) [0 -3 0 0 0 0 0] 0
min(betaHall) [0 0 0 0 0 0 0] 0
Calculating D

min(D) [2 0 -4 0 0 -2 0] 0.00015925001
Hall tensor allocated

max(hallParameter) [0 0 0 0 0 0 0] (1 0 -0 -0 1 -0 0 0 1)
Returning current density with Hall correction

diagonal:  Solving for rhoE, Initial residual = 0, Final residual = 0, No Iterations 0
Q_mag is working. max(Q_mag) = Calculating energy equation MHD term

max(nD_e-) [0 -3 0 0 0 0 0] 0
min(betaHall) [0 0 0 0 0 0 0] 0
Calculating D

min(D) [2 0 -4 0 0 -2 0] 0.00015925001
Hall tensor allocated

max(hallParameter) [0 0 0 0 0 0 0] (1 0 -0 -0 1 -0 0 0 1)
Returning current density with Hall correction

max(Q) [1 -1 -3 0 0 0 0] 652569516.1
smoothSolver:  Solving for hevel, Initial residual = 8.827066971e-08, Final residual = 9.735175591e-17, No Iterations 2
Q_mag is working
smoothSolver:  Solving for e, Initial residual = 1.124861898e-07, Final residual = 4.51674873e-16, No Iterations 2
Phase no 1.0  ExecutionTime = 8.8 s  ClockTime = 9 s  Iteration no 7 (1.05 s)

Mean and max Courant Numbers = 0.01718627742 0.3001885961
deltaT = 1.569858713e-08
Time = 0.001430125589

diagonal:  Solving for rho, Initial residual = 0, Final residual = 0, No Iterations 0
diagonal:  Solving for rhoUx, Initial residual = 0, Final residual = 0, No Iterations 0
diagonal:  Solving for rhoUy, Initial residual = 0, Final residual = 0, No Iterations 0
diagonal:  Solving for rhoUz, Initial residual = 0, Final residual = 0, No Iterations 0
Calculating momentum equation MHD term

max(nD_e-) [0 -3 0 0 0 0 0] 0
min(betaHall) [0 0 0 0 0 0 0] 0
Calculating D

min(D) [2 0 -4 0 0 -2 0] 0.00015925001
Hall tensor allocated

max(hallParameter) [0 0 0 0 0 0 0] (1 0 -0 -0 1 -0 0 0 1)
Returning current density with Hall correction

smoothSolver:  Solving for Ux, Initial residual = 1.980144996e-06, Final residual = 1.271182816e-15, No Iterations 2
smoothSolver:  Solving for Uy, Initial residual = 3.740217475e-06, Final residual = 2.341400061e-15, No Iterations 2
smoothSolver:  Solving for Uz, Initial residual = 0.0002769306107, Final residual = 2.245215764e-13, No Iterations 2
diagonal:  Solving for rhoEv, Initial residual = 0, Final residual = 0, No Iterations 0
Calculating energy equation MHD term

max(nD_e-) [0 -3 0 0 0 0 0] 0
min(betaHall) [0 0 0 0 0 0 0] 0
Calculating D

min(D) [2 0 -4 0 0 -2 0] 0.00015925001
Hall tensor allocated

max(hallParameter) [0 0 0 0 0 0 0] (1 0 -0 -0 1 -0 0 0 1)
Returning current density with Hall correction

diagonal:  Solving for rhoE, Initial residual = 0, Final residual = 0, No Iterations 0
Q_mag is working. max(Q_mag) = Calculating energy equation MHD term

max(nD_e-) [0 -3 0 0 0 0 0] 0
min(betaHall) [0 0 0 0 0 0 0] 0
Calculating D

min(D) [2 0 -4 0 0 -2 0] 0.00015925001
Hall tensor allocated

max(hallParameter) [0 0 0 0 0 0 0] (1 0 -0 -0 1 -0 0 0 1)
Returning current density with Hall correction

max(Q) [1 -1 -3 0 0 0 0] 652559725.4
smoothSolver:  Solving for hevel, Initial residual = 8.827051061e-08, Final residual = 9.738328882e-17, No Iterations 2
Q_mag is working
smoothSolver:  Solving for e, Initial residual = 1.124855844e-07, Final residual = 4.512623141e-16, No Iterations 2
Phase no 1.0  ExecutionTime = 9.84 s  ClockTime = 10 s  Iteration no 8 (1.04 s)

Mean and max Courant Numbers = 0.01718625967 0.3001892703
deltaT = 1.569858713e-08
Time = 0.001430141287

diagonal:  Solving for rho, Initial residual = 0, Final residual = 0, No Iterations 0
diagonal:  Solving for rhoUx, Initial residual = 0, Final residual = 0, No Iterations 0
diagonal:  Solving for rhoUy, Initial residual = 0, Final residual = 0, No Iterations 0
diagonal:  Solving for rhoUz, Initial residual = 0, Final residual = 0, No Iterations 0
Calculating momentum equation MHD term

max(nD_e-) [0 -3 0 0 0 0 0] 0
min(betaHall) [0 0 0 0 0 0 0] 0
Calculating D

min(D) [2 0 -4 0 0 -2 0] 0.00015925001
Hall tensor allocated

max(hallParameter) [0 0 0 0 0 0 0] (1 0 -0 -0 1 -0 0 0 1)
Returning current density with Hall correction

smoothSolver:  Solving for Ux, Initial residual = 1.980112159e-06, Final residual = 1.271291119e-15, No Iterations 2
smoothSolver:  Solving for Uy, Initial residual = 3.740133637e-06, Final residual = 2.341320786e-15, No Iterations 2
smoothSolver:  Solving for Uz, Initial residual = 0.0002767924186, Final residual = 2.244111193e-13, No Iterations 2
diagonal:  Solving for rhoEv, Initial residual = 0, Final residual = 0, No Iterations 0
Calculating energy equation MHD term

max(nD_e-) [0 -3 0 0 0 0 0] 0
min(betaHall) [0 0 0 0 0 0 0] 0
Calculating D

min(D) [2 0 -4 0 0 -2 0] 0.00015925001
Hall tensor allocated

max(hallParameter) [0 0 0 0 0 0 0] (1 0 -0 -0 1 -0 0 0 1)
Returning current density with Hall correction

diagonal:  Solving for rhoE, Initial residual = 0, Final residual = 0, No Iterations 0
Q_mag is working. max(Q_mag) = Calculating energy equation MHD term

max(nD_e-) [0 -3 0 0 0 0 0] 0
min(betaHall) [0 0 0 0 0 0 0] 0
Calculating D

min(D) [2 0 -4 0 0 -2 0] 0.00015925001
Hall tensor allocated

max(hallParameter) [0 0 0 0 0 0 0] (1 0 -0 -0 1 -0 0 0 1)
Returning current density with Hall correction

max(Q) [1 -1 -3 0 0 0 0] 652549799.7
smoothSolver:  Solving for hevel, Initial residual = 8.827034392e-08, Final residual = 9.677212565e-17, No Iterations 2
Q_mag is working
smoothSolver:  Solving for e, Initial residual = 1.12484968e-07, Final residual = 4.516094239e-16, No Iterations 2
Phase no 1.0  ExecutionTime = 10.89 s  ClockTime = 11 s  Iteration no 9 (1.05 s)

Mean and max Courant Numbers = 0.01718624191 0.3001899446
deltaT = 1.569858713e-08
Time = 0.001430156986

diagonal:  Solving for rho, Initial residual = 0, Final residual = 0, No Iterations 0
diagonal:  Solving for rhoUx, Initial residual = 0, Final residual = 0, No Iterations 0
diagonal:  Solving for rhoUy, Initial residual = 0, Final residual = 0, No Iterations 0
diagonal:  Solving for rhoUz, Initial residual = 0, Final residual = 0, No Iterations 0
Calculating momentum equation MHD term

max(nD_e-) [0 -3 0 0 0 0 0] 0
min(betaHall) [0 0 0 0 0 0 0] 0
Calculating D

min(D) [2 0 -4 0 0 -2 0] 0.00015925001
Hall tensor allocated

max(hallParameter) [0 0 0 0 0 0 0] (1 0 -0 -0 1 -0 0 0 1)
Returning current density with Hall correction

smoothSolver:  Solving for Ux, Initial residual = 1.980079341e-06, Final residual = 1.271132858e-15, No Iterations 2
smoothSolver:  Solving for Uy, Initial residual = 3.740049814e-06, Final residual = 2.340863918e-15, No Iterations 2
smoothSolver:  Solving for Uz, Initial residual = 0.0002766543728, Final residual = 2.243014667e-13, No Iterations 2
diagonal:  Solving for rhoEv, Initial residual = 0, Final residual = 0, No Iterations 0
Calculating energy equation MHD term

max(nD_e-) [0 -3 0 0 0 0 0] 0
min(betaHall) [0 0 0 0 0 0 0] 0
Calculating D

min(D) [2 0 -4 0 0 -2 0] 0.00015925001
Hall tensor allocated

max(hallParameter) [0 0 0 0 0 0 0] (1 0 -0 -0 1 -0 0 0 1)
Returning current density with Hall correction

diagonal:  Solving for rhoE, Initial residual = 0, Final residual = 0, No Iterations 0
Q_mag is working. max(Q_mag) = Calculating energy equation MHD term

max(nD_e-) [0 -3 0 0 0 0 0] 0
min(betaHall) [0 0 0 0 0 0 0] 0
Calculating D

min(D) [2 0 -4 0 0 -2 0] 0.00015925001
Hall tensor allocated

max(hallParameter) [0 0 0 0 0 0 0] (1 0 -0 -0 1 -0 0 0 1)
Returning current density with Hall correction

max(Q) [1 -1 -3 0 0 0 0] 652539739
smoothSolver:  Solving for hevel, Initial residual = 8.827016906e-08, Final residual = 9.719121684e-17, No Iterations 2
Q_mag is working
smoothSolver:  Solving for e, Initial residual = 1.124843401e-07, Final residual = 4.510943587e-16, No Iterations 2
Phase no 1.0  ExecutionTime = 11.99 s  ClockTime = 12 s  Iteration no 10 (1.1 s)

Mean and max Courant Numbers = 0.01718622415 0.3001906192
deltaT = 1.569858713e-08
Time = 0.001430172684

diagonal:  Solving for rho, Initial residual = 0, Final residual = 0, No Iterations 0
diagonal:  Solving for rhoUx, Initial residual = 0, Final residual = 0, No Iterations 0
diagonal:  Solving for rhoUy, Initial residual = 0, Final residual = 0, No Iterations 0
diagonal:  Solving for rhoUz, Initial residual = 0, Final residual = 0, No Iterations 0
Calculating momentum equation MHD term

max(nD_e-) [0 -3 0 0 0 0 0] 0
min(betaHall) [0 0 0 0 0 0 0] 0
Calculating D

min(D) [2 0 -4 0 0 -2 0] 0.00015925001
Hall tensor allocated

max(hallParameter) [0 0 0 0 0 0 0] (1 0 -0 -0 1 -0 0 0 1)
Returning current density with Hall correction

smoothSolver:  Solving for Ux, Initial residual = 1.98004654e-06, Final residual = 1.271028193e-15, No Iterations 2
smoothSolver:  Solving for Uy, Initial residual = 3.739966008e-06, Final residual = 2.342047689e-15, No Iterations 2
smoothSolver:  Solving for Uz, Initial residual = 0.0002765164716, Final residual = 2.241918885e-13, No Iterations 2
diagonal:  Solving for rhoEv, Initial residual = 0, Final residual = 0, No Iterations 0
Calculating energy equation MHD term

max(nD_e-) [0 -3 0 0 0 0 0] 0
min(betaHall) [0 0 0 0 0 0 0] 0
Calculating D

min(D) [2 0 -4 0 0 -2 0] 0.00015925001
Hall tensor allocated

max(hallParameter) [0 0 0 0 0 0 0] (1 0 -0 -0 1 -0 0 0 1)
Returning current density with Hall correction

diagonal:  Solving for rhoE, Initial residual = 0, Final residual = 0, No Iterations 0
Q_mag is working. max(Q_mag) = Calculating energy equation MHD term

max(nD_e-) [0 -3 0 0 0 0 0] 0
min(betaHall) [0 0 0 0 0 0 0] 0
Calculating D

min(D) [2 0 -4 0 0 -2 0] 0.00015925001
Hall tensor allocated

max(hallParameter) [0 0 0 0 0 0 0] (1 0 -0 -0 1 -0 0 0 1)
Returning current density with Hall correction

max(Q) [1 -1 -3 0 0 0 0] 652529543.2
smoothSolver:  Solving for hevel, Initial residual = 8.826998597e-08, Final residual = 9.738720557e-17, No Iterations 2
Q_mag is working
smoothSolver:  Solving for e, Initial residual = 1.124837003e-07, Final residual = 4.512819563e-16, No Iterations 2
Phase no 1.0  ExecutionTime = 13.26 s  ClockTime = 13 s  Iteration no 11 (1.27 s)

Mean and max Courant Numbers = 0.01718620638 0.3001912939
deltaT = 1.569858713e-08
Time = 0.001430188383

diagonal:  Solving for rho, Initial residual = 0, Final residual = 0, No Iterations 0
diagonal:  Solving for rhoUx, Initial residual = 0, Final residual = 0, No Iterations 0
diagonal:  Solving for rhoUy, Initial residual = 0, Final residual = 0, No Iterations 0
diagonal:  Solving for rhoUz, Initial residual = 0, Final residual = 0, No Iterations 0
Calculating momentum equation MHD term

max(nD_e-) [0 -3 0 0 0 0 0] 0
min(betaHall) [0 0 0 0 0 0 0] 0
Calculating D

min(D) [2 0 -4 0 0 -2 0] 0.00015925001
Hall tensor allocated

max(hallParameter) [0 0 0 0 0 0 0] (1 0 -0 -0 1 -0 0 0 1)
Returning current density with Hall correction

smoothSolver:  Solving for Ux, Initial residual = 1.980013757e-06, Final residual = 1.271021547e-15, No Iterations 2
smoothSolver:  Solving for Uy, Initial residual = 3.739882218e-06, Final residual = 2.341230577e-15, No Iterations 2
smoothSolver:  Solving for Uz, Initial residual = 0.0002763787144, Final residual = 2.240821862e-13, No Iterations 2
diagonal:  Solving for rhoEv, Initial residual = 0, Final residual = 0, No Iterations 0
Calculating energy equation MHD term

max(nD_e-) [0 -3 0 0 0 0 0] 0
min(betaHall) [0 0 0 0 0 0 0] 0
Calculating D

min(D) [2 0 -4 0 0 -2 0] 0.00015925001
Hall tensor allocated

max(hallParameter) [0 0 0 0 0 0 0] (1 0 -0 -0 1 -0 0 0 1)
Returning current density with Hall correction

diagonal:  Solving for rhoE, Initial residual = 0, Final residual = 0, No Iterations 0
Q_mag is working. max(Q_mag) = Calculating energy equation MHD term

max(nD_e-) [0 -3 0 0 0 0 0] 0
min(betaHall) [0 0 0 0 0 0 0] 0
Calculating D

min(D) [2 0 -4 0 0 -2 0] 0.00015925001
Hall tensor allocated

max(hallParameter) [0 0 0 0 0 0 0] (1 0 -0 -0 1 -0 0 0 1)
Returning current density with Hall correction

max(Q) [1 -1 -3 0 0 0 0] 652519212.5
smoothSolver:  Solving for hevel, Initial residual = 8.826979462e-08, Final residual = 9.688410728e-17, No Iterations 2
Q_mag is working
smoothSolver:  Solving for e, Initial residual = 1.124830484e-07, Final residual = 4.515033331e-16, No Iterations 2
Phase no 1.0  ExecutionTime = 14.34 s  ClockTime = 14 s  Iteration no 12 (1.08 s)

Mean and max Courant Numbers = 0.0171861886 0.3001919688
deltaT = 1.569858713e-08
Time = 0.001430204082

diagonal:  Solving for rho, Initial residual = 0, Final residual = 0, No Iterations 0
diagonal:  Solving for rhoUx, Initial residual = 0, Final residual = 0, No Iterations 0
diagonal:  Solving for rhoUy, Initial residual = 0, Final residual = 0, No Iterations 0
diagonal:  Solving for rhoUz, Initial residual = 0, Final residual = 0, No Iterations 0
Calculating momentum equation MHD term

max(nD_e-) [0 -3 0 0 0 0 0] 0
min(betaHall) [0 0 0 0 0 0 0] 0
Calculating D

min(D) [2 0 -4 0 0 -2 0] 0.00015925001
Hall tensor allocated

max(hallParameter) [0 0 0 0 0 0 0] (1 0 -0 -0 1 -0 0 0 1)
Returning current density with Hall correction

smoothSolver:  Solving for Ux, Initial residual = 1.979980993e-06, Final residual = 1.271356401e-15, No Iterations 2
smoothSolver:  Solving for Uy, Initial residual = 3.739798443e-06, Final residual = 2.341192504e-15, No Iterations 2
smoothSolver:  Solving for Uz, Initial residual = 0.0002762411019, Final residual = 2.239716956e-13, No Iterations 2
diagonal:  Solving for rhoEv, Initial residual = 0, Final residual = 0, No Iterations 0
Calculating energy equation MHD term

max(nD_e-) [0 -3 0 0 0 0 0] 0
min(betaHall) [0 0 0 0 0 0 0] 0
Calculating D

min(D) [2 0 -4 0 0 -2 0] 0.00015925001
Hall tensor allocated

max(hallParameter) [0 0 0 0 0 0 0] (1 0 -0 -0 1 -0 0 0 1)
Returning current density with Hall correction

diagonal:  Solving for rhoE, Initial residual = 0, Final residual = 0, No Iterations 0
Q_mag is working. max(Q_mag) = Calculating energy equation MHD term

max(nD_e-) [0 -3 0 0 0 0 0] 0
min(betaHall) [0 0 0 0 0 0 0] 0
Calculating D

min(D) [2 0 -4 0 0 -2 0] 0.00015925001
Hall tensor allocated

max(hallParameter) [0 0 0 0 0 0 0] (1 0 -0 -0 1 -0 0 0 1)
Returning current density with Hall correction

max(Q) [1 -1 -3 0 0 0 0] 652508746.7
smoothSolver:  Solving for hevel, Initial residual = 8.826959406e-08, Final residual = 9.63886111e-17, No Iterations 2
Q_mag is working
smoothSolver:  Solving for e, Initial residual = 1.124823841e-07, Final residual = 4.514271379e-16, No Iterations 2
Phase no 1.0  ExecutionTime = 15.41 s  ClockTime = 15 s  Iteration no 13 (1.07 s)

Mean and max Courant Numbers = 0.01718617082 0.3001926439
deltaT = 1.569858713e-08
Time = 0.00143021978

diagonal:  Solving for rho, Initial residual = 0, Final residual = 0, No Iterations 0
diagonal:  Solving for rhoUx, Initial residual = 0, Final residual = 0, No Iterations 0
diagonal:  Solving for rhoUy, Initial residual = 0, Final residual = 0, No Iterations 0
diagonal:  Solving for rhoUz, Initial residual = 0, Final residual = 0, No Iterations 0
Calculating momentum equation MHD term

max(nD_e-) [0 -3 0 0 0 0 0] 0
min(betaHall) [0 0 0 0 0 0 0] 0
Calculating D

min(D) [2 0 -4 0 0 -2 0] 0.00015925001
Hall tensor allocated

max(hallParameter) [0 0 0 0 0 0 0] (1 0 -0 -0 1 -0 0 0 1)
Returning current density with Hall correction

smoothSolver:  Solving for Ux, Initial residual = 1.979948245e-06, Final residual = 1.271342652e-15, No Iterations 2
smoothSolver:  Solving for Uy, Initial residual = 3.739714683e-06, Final residual = 2.34164377e-15, No Iterations 2
smoothSolver:  Solving for Uz, Initial residual = 0.000276103633, Final residual = 2.238625531e-13, No Iterations 2
diagonal:  Solving for rhoEv, Initial residual = 0, Final residual = 0, No Iterations 0
Calculating energy equation MHD term

max(nD_e-) [0 -3 0 0 0 0 0] 0
min(betaHall) [0 0 0 0 0 0 0] 0
Calculating D

min(D) [2 0 -4 0 0 -2 0] 0.00015925001
Hall tensor allocated

max(hallParameter) [0 0 0 0 0 0 0] (1 0 -0 -0 1 -0 0 0 1)
Returning current density with Hall correction

diagonal:  Solving for rhoE, Initial residual = 0, Final residual = 0, No Iterations 0
Q_mag is working. max(Q_mag) = Calculating energy equation MHD term

max(nD_e-) [0 -3 0 0 0 0 0] 0
min(betaHall) [0 0 0 0 0 0 0] 0
Calculating D

min(D) [2 0 -4 0 0 -2 0] 0.00015925001
Hall tensor allocated

max(hallParameter) [0 0 0 0 0 0 0] (1 0 -0 -0 1 -0 0 0 1)
Returning current density with Hall correction

max(Q) [1 -1 -3 0 0 0 0] 652498145.9
smoothSolver:  Solving for hevel, Initial residual = 8.826950899e-08, Final residual = 9.685793083e-17, No Iterations 2
Q_mag is working
smoothSolver:  Solving for e, Initial residual = 1.124817068e-07, Final residual = 4.513022405e-16, No Iterations 2
Phase no 1.0  ExecutionTime = 16.48 s  ClockTime = 16 s  Iteration no 14 (1.07 s)

Mean and max Courant Numbers = 0.01718615304 0.3001933192
deltaT = 1.569858713e-08
Time = 0.001430235479

diagonal:  Solving for rho, Initial residual = 0, Final residual = 0, No Iterations 0
diagonal:  Solving for rhoUx, Initial residual = 0, Final residual = 0, No Iterations 0
diagonal:  Solving for rhoUy, Initial residual = 0, Final residual = 0, No Iterations 0
diagonal:  Solving for rhoUz, Initial residual = 0, Final residual = 0, No Iterations 0
Calculating momentum equation MHD term

max(nD_e-) [0 -3 0 0 0 0 0] 0
min(betaHall) [0 0 0 0 0 0 0] 0
Calculating D

min(D) [2 0 -4 0 0 -2 0] 0.00015925001
Hall tensor allocated

max(hallParameter) [0 0 0 0 0 0 0] (1 0 -0 -0 1 -0 0 0 1)
Returning current density with Hall correction

smoothSolver:  Solving for Ux, Initial residual = 1.979915515e-06, Final residual = 1.271088859e-15, No Iterations 2
smoothSolver:  Solving for Uy, Initial residual = 3.739630939e-06, Final residual = 2.341110695e-15, No Iterations 2
smoothSolver:  Solving for Uz, Initial residual = 0.0002759663075, Final residual = 2.237535008e-13, No Iterations 2
diagonal:  Solving for rhoEv, Initial residual = 0, Final residual = 0, No Iterations 0
Calculating energy equation MHD term

max(nD_e-) [0 -3 0 0 0 0 0] 0
min(betaHall) [0 0 0 0 0 0 0] 0
Calculating D

min(D) [2 0 -4 0 0 -2 0] 0.00015925001
Hall tensor allocated

max(hallParameter) [0 0 0 0 0 0 0] (1 0 -0 -0 1 -0 0 0 1)
Returning current density with Hall correction

diagonal:  Solving for rhoE, Initial residual = 0, Final residual = 0, No Iterations 0
Q_mag is working. max(Q_mag) = Calculating energy equation MHD term

max(nD_e-) [0 -3 0 0 0 0 0] 0
min(betaHall) [0 0 0 0 0 0 0] 0
Calculating D

min(D) [2 0 -4 0 0 -2 0] 0.00015925001
Hall tensor allocated

max(hallParameter) [0 0 0 0 0 0 0] (1 0 -0 -0 1 -0 0 0 1)
Returning current density with Hall correction

max(Q) [1 -1 -3 0 0 0 0] 652487410.2
smoothSolver:  Solving for hevel, Initial residual = 8.826942284e-08, Final residual = 9.697175537e-17, No Iterations 2
Q_mag is working
smoothSolver:  Solving for e, Initial residual = 1.124810156e-07, Final residual = 4.514745155e-16, No Iterations 2
Phase no 1.0  ExecutionTime = 17.56 s  ClockTime = 18 s  Iteration no 15 (1.08 s)

Mean and max Courant Numbers = 0.01718613525 0.3001939947
deltaT = 1.569858713e-08
Time = 0.001430251177

diagonal:  Solving for rho, Initial residual = 0, Final residual = 0, No Iterations 0
diagonal:  Solving for rhoUx, Initial residual = 0, Final residual = 0, No Iterations 0
diagonal:  Solving for rhoUy, Initial residual = 0, Final residual = 0, No Iterations 0
diagonal:  Solving for rhoUz, Initial residual = 0, Final residual = 0, No Iterations 0
Calculating momentum equation MHD term

max(nD_e-) [0 -3 0 0 0 0 0] 0
min(betaHall) [0 0 0 0 0 0 0] 0
Calculating D

min(D) [2 0 -4 0 0 -2 0] 0.00015925001
Hall tensor allocated

max(hallParameter) [0 0 0 0 0 0 0] (1 0 -0 -0 1 -0 0 0 1)
Returning current density with Hall correction

smoothSolver:  Solving for Ux, Initial residual = 1.979882803e-06, Final residual = 1.271156412e-15, No Iterations 2
smoothSolver:  Solving for Uy, Initial residual = 3.73954721e-06, Final residual = 2.340911424e-15, No Iterations 2
smoothSolver:  Solving for Uz, Initial residual = 0.0002758291225, Final residual = 2.236435105e-13, No Iterations 2
diagonal:  Solving for rhoEv, Initial residual = 0, Final residual = 0, No Iterations 0
Calculating energy equation MHD term

max(nD_e-) [0 -3 0 0 0 0 0] 0
min(betaHall) [0 0 0 0 0 0 0] 0
Calculating D

min(D) [2 0 -4 0 0 -2 0] 0.00015925001
Hall tensor allocated

max(hallParameter) [0 0 0 0 0 0 0] (1 0 -0 -0 1 -0 0 0 1)
Returning current density with Hall correction

diagonal:  Solving for rhoE, Initial residual = 0, Final residual = 0, No Iterations 0
Q_mag is working. max(Q_mag) = Calculating energy equation MHD term

max(nD_e-) [0 -3 0 0 0 0 0] 0
min(betaHall) [0 0 0 0 0 0 0] 0
Calculating D

min(D) [2 0 -4 0 0 -2 0] 0.00015925001
Hall tensor allocated

max(hallParameter) [0 0 0 0 0 0 0] (1 0 -0 -0 1 -0 0 0 1)
Returning current density with Hall correction

max(Q) [1 -1 -3 0 0 0 0] 652476539.5
smoothSolver:  Solving for hevel, Initial residual = 8.826932632e-08, Final residual = 9.715598108e-17, No Iterations 2
Q_mag is working
smoothSolver:  Solving for e, Initial residual = 1.124803114e-07, Final residual = 4.516408684e-16, No Iterations 2
Phase no 1.0  ExecutionTime = 18.64 s  ClockTime = 19 s  Iteration no 16 (1.08 s)

Mean and max Courant Numbers = 0.01718611746 0.3001946703
deltaT = 1.569858713e-08
Time = 0.001430266876

diagonal:  Solving for rho, Initial residual = 0, Final residual = 0, No Iterations 0
diagonal:  Solving for rhoUx, Initial residual = 0, Final residual = 0, No Iterations 0
diagonal:  Solving for rhoUy, Initial residual = 0, Final residual = 0, No Iterations 0
diagonal:  Solving for rhoUz, Initial residual = 0, Final residual = 0, No Iterations 0
Calculating momentum equation MHD term

max(nD_e-) [0 -3 0 0 0 0 0] 0
min(betaHall) [0 0 0 0 0 0 0] 0
Calculating D

min(D) [2 0 -4 0 0 -2 0] 0.00015925001
Hall tensor allocated

max(hallParameter) [0 0 0 0 0 0 0] (1 0 -0 -0 1 -0 0 0 1)
Returning current density with Hall correction

smoothSolver:  Solving for Ux, Initial residual = 1.979850108e-06, Final residual = 1.270737827e-15, No Iterations 2
smoothSolver:  Solving for Uy, Initial residual = 3.739463501e-06, Final residual = 2.340416955e-15, No Iterations 2
smoothSolver:  Solving for Uz, Initial residual = 0.0002756920777, Final residual = 2.23534777e-13, No Iterations 2
diagonal:  Solving for rhoEv, Initial residual = 0, Final residual = 0, No Iterations 0
Calculating energy equation MHD term

max(nD_e-) [0 -3 0 0 0 0 0] 0
min(betaHall) [0 0 0 0 0 0 0] 0
Calculating D

min(D) [2 0 -4 0 0 -2 0] 0.00015925001
Hall tensor allocated

max(hallParameter) [0 0 0 0 0 0 0] (1 0 -0 -0 1 -0 0 0 1)
Returning current density with Hall correction

diagonal:  Solving for rhoE, Initial residual = 0, Final residual = 0, No Iterations 0
Q_mag is working. max(Q_mag) = Calculating energy equation MHD term

max(nD_e-) [0 -3 0 0 0 0 0] 0
min(betaHall) [0 0 0 0 0 0 0] 0
Calculating D

min(D) [2 0 -4 0 0 -2 0] 0.00015925001
Hall tensor allocated

max(hallParameter) [0 0 0 0 0 0 0] (1 0 -0 -0 1 -0 0 0 1)
Returning current density with Hall correction

max(Q) [1 -1 -3 0 0 0 0] 652465533.8
smoothSolver:  Solving for hevel, Initial residual = 8.826921896e-08, Final residual = 9.692076171e-17, No Iterations 2
Q_mag is working
smoothSolver:  Solving for e, Initial residual = 1.124795938e-07, Final residual = 4.514249321e-16, No Iterations 2
Phase no 1.0  ExecutionTime = 19.71 s  ClockTime = 20 s  Iteration no 17 (1.07 s)

Mean and max Courant Numbers = 0.01718609966 0.3001953462
deltaT = 1.569858713e-08
Time = 0.001430282575

diagonal:  Solving for rho, Initial residual = 0, Final residual = 0, No Iterations 0
diagonal:  Solving for rhoUx, Initial residual = 0, Final residual = 0, No Iterations 0
diagonal:  Solving for rhoUy, Initial residual = 0, Final residual = 0, No Iterations 0
diagonal:  Solving for rhoUz, Initial residual = 0, Final residual = 0, No Iterations 0
Calculating momentum equation MHD term

max(nD_e-) [0 -3 0 0 0 0 0] 0
min(betaHall) [0 0 0 0 0 0 0] 0
Calculating D

min(D) [2 0 -4 0 0 -2 0] 0.00015925001
Hall tensor allocated

max(hallParameter) [0 0 0 0 0 0 0] (1 0 -0 -0 1 -0 0 0 1)
Returning current density with Hall correction

smoothSolver:  Solving for Ux, Initial residual = 1.979817431e-06, Final residual = 1.270813673e-15, No Iterations 2
smoothSolver:  Solving for Uy, Initial residual = 3.739379809e-06, Final residual = 2.340523737e-15, No Iterations 2
smoothSolver:  Solving for Uz, Initial residual = 0.000275555176, Final residual = 2.234256779e-13, No Iterations 2
diagonal:  Solving for rhoEv, Initial residual = 0, Final residual = 0, No Iterations 0
Calculating energy equation MHD term

max(nD_e-) [0 -3 0 0 0 0 0] 0
min(betaHall) [0 0 0 0 0 0 0] 0
Calculating D

min(D) [2 0 -4 0 0 -2 0] 0.00015925001
Hall tensor allocated

max(hallParameter) [0 0 0 0 0 0 0] (1 0 -0 -0 1 -0 0 0 1)
Returning current density with Hall correction

diagonal:  Solving for rhoE, Initial residual = 0, Final residual = 0, No Iterations 0
Q_mag is working. max(Q_mag) = Calculating energy equation MHD term

max(nD_e-) [0 -3 0 0 0 0 0] 0
min(betaHall) [0 0 0 0 0 0 0] 0
Calculating D

min(D) [2 0 -4 0 0 -2 0] 0.00015925001
Hall tensor allocated

max(hallParameter) [0 0 0 0 0 0 0] (1 0 -0 -0 1 -0 0 0 1)
Returning current density with Hall correction

max(Q) [1 -1 -3 0 0 0 0] 652454393.1
smoothSolver:  Solving for hevel, Initial residual = 8.826910102e-08, Final residual = 9.68240653e-17, No Iterations 2
Q_mag is working
smoothSolver:  Solving for e, Initial residual = 1.124788626e-07, Final residual = 4.518973293e-16, No Iterations 2
Phase no 1.0  ExecutionTime = 20.78 s  ClockTime = 21 s  Iteration no 18 (1.07 s)

Mean and max Courant Numbers = 0.01718608186 0.3001960222
deltaT = 1.569858713e-08
Time = 0.001430298273

diagonal:  Solving for rho, Initial residual = 0, Final residual = 0, No Iterations 0
diagonal:  Solving for rhoUx, Initial residual = 0, Final residual = 0, No Iterations 0
diagonal:  Solving for rhoUy, Initial residual = 0, Final residual = 0, No Iterations 0
diagonal:  Solving for rhoUz, Initial residual = 0, Final residual = 0, No Iterations 0
Calculating momentum equation MHD term

max(nD_e-) [0 -3 0 0 0 0 0] 0
min(betaHall) [0 0 0 0 0 0 0] 0
Calculating D

min(D) [2 0 -4 0 0 -2 0] 0.00015925001
Hall tensor allocated

max(hallParameter) [0 0 0 0 0 0 0] (1 0 -0 -0 1 -0 0 0 1)
Returning current density with Hall correction

smoothSolver:  Solving for Ux, Initial residual = 1.979784771e-06, Final residual = 1.271214447e-15, No Iterations 2
smoothSolver:  Solving for Uy, Initial residual = 3.739296132e-06, Final residual = 2.341075145e-15, No Iterations 2
smoothSolver:  Solving for Uz, Initial residual = 0.0002754184163, Final residual = 2.233169553e-13, No Iterations 2
diagonal:  Solving for rhoEv, Initial residual = 0, Final residual = 0, No Iterations 0
Calculating energy equation MHD term

max(nD_e-) [0 -3 0 0 0 0 0] 0
min(betaHall) [0 0 0 0 0 0 0] 0
Calculating D

min(D) [2 0 -4 0 0 -2 0] 0.00015925001
Hall tensor allocated

max(hallParameter) [0 0 0 0 0 0 0] (1 0 -0 -0 1 -0 0 0 1)
Returning current density with Hall correction

diagonal:  Solving for rhoE, Initial residual = 0, Final residual = 0, No Iterations 0
Q_mag is working. max(Q_mag) = Calculating energy equation MHD term

max(nD_e-) [0 -3 0 0 0 0 0] 0
min(betaHall) [0 0 0 0 0 0 0] 0
Calculating D

min(D) [2 0 -4 0 0 -2 0] 0.00015925001
Hall tensor allocated

max(hallParameter) [0 0 0 0 0 0 0] (1 0 -0 -0 1 -0 0 0 1)
Returning current density with Hall correction

max(Q) [1 -1 -3 0 0 0 0] 652443117.5
smoothSolver:  Solving for hevel, Initial residual = 8.826897222e-08, Final residual = 9.743586894e-17, No Iterations 2
Q_mag is working
smoothSolver:  Solving for e, Initial residual = 1.124781173e-07, Final residual = 4.510631634e-16, No Iterations 2
Phase no 1.0  ExecutionTime = 21.85 s  ClockTime = 22 s  Iteration no 19 (1.07 s)

Mean and max Courant Numbers = 0.01718606405 0.3001966984
deltaT = 1.569858713e-08
Time = 0.001430313972

diagonal:  Solving for rho, Initial residual = 0, Final residual = 0, No Iterations 0
diagonal:  Solving for rhoUx, Initial residual = 0, Final residual = 0, No Iterations 0
diagonal:  Solving for rhoUy, Initial residual = 0, Final residual = 0, No Iterations 0
diagonal:  Solving for rhoUz, Initial residual = 0, Final residual = 0, No Iterations 0
Calculating momentum equation MHD term

max(nD_e-) [0 -3 0 0 0 0 0] 0
min(betaHall) [0 0 0 0 0 0 0] 0
Calculating D

min(D) [2 0 -4 0 0 -2 0] 0.00015925001
Hall tensor allocated

max(hallParameter) [0 0 0 0 0 0 0] (1 0 -0 -0 1 -0 0 0 1)
Returning current density with Hall correction

smoothSolver:  Solving for Ux, Initial residual = 1.979752128e-06, Final residual = 1.271254402e-15, No Iterations 2
smoothSolver:  Solving for Uy, Initial residual = 3.739212464e-06, Final residual = 2.341295859e-15, No Iterations 2
smoothSolver:  Solving for Uz, Initial residual = 0.0002752817975, Final residual = 2.232079667e-13, No Iterations 2
diagonal:  Solving for rhoEv, Initial residual = 0, Final residual = 0, No Iterations 0
Calculating energy equation MHD term

max(nD_e-) [0 -3 0 0 0 0 0] 0
min(betaHall) [0 0 0 0 0 0 0] 0
Calculating D

min(D) [2 0 -4 0 0 -2 0] 0.00015925001
Hall tensor allocated

max(hallParameter) [0 0 0 0 0 0 0] (1 0 -0 -0 1 -0 0 0 1)
Returning current density with Hall correction

diagonal:  Solving for rhoE, Initial residual = 0, Final residual = 0, No Iterations 0
Q_mag is working. max(Q_mag) = Calculating energy equation MHD term

max(nD_e-) [0 -3 0 0 0 0 0] 0
min(betaHall) [0 0 0 0 0 0 0] 0
Calculating D

min(D) [2 0 -4 0 0 -2 0] 0.00015925001
Hall tensor allocated

max(hallParameter) [0 0 0 0 0 0 0] (1 0 -0 -0 1 -0 0 0 1)
Returning current density with Hall correction

max(Q) [1 -1 -3 0 0 0 0] 652431707
smoothSolver:  Solving for hevel, Initial residual = 8.82688323e-08, Final residual = 9.707869478e-17, No Iterations 2
Q_mag is working
smoothSolver:  Solving for e, Initial residual = 1.124773578e-07, Final residual = 4.511944214e-16, No Iterations 2
Phase no 1.0  ExecutionTime = 22.94 s  ClockTime = 23 s  Iteration no 20 (1.09 s)

Mean and max Courant Numbers = 0.01718604624 0.3001973749
deltaT = 1.569858713e-08
Time = 0.00143032967

diagonal:  Solving for rho, Initial residual = 0, Final residual = 0, No Iterations 0
diagonal:  Solving for rhoUx, Initial residual = 0, Final residual = 0, No Iterations 0
diagonal:  Solving for rhoUy, Initial residual = 0, Final residual = 0, No Iterations 0
diagonal:  Solving for rhoUz, Initial residual = 0, Final residual = 0, No Iterations 0
Calculating momentum equation MHD term

max(nD_e-) [0 -3 0 0 0 0 0] 0
min(betaHall) [0 0 0 0 0 0 0] 0
Calculating D

min(D) [2 0 -4 0 0 -2 0] 0.00015925001
Hall tensor allocated

max(hallParameter) [0 0 0 0 0 0 0] (1 0 -0 -0 1 -0 0 0 1)
Returning current density with Hall correction

smoothSolver:  Solving for Ux, Initial residual = 1.979719502e-06, Final residual = 1.271157186e-15, No Iterations 2
smoothSolver:  Solving for Uy, Initial residual = 3.739128802e-06, Final residual = 2.341277055e-15, No Iterations 2
smoothSolver:  Solving for Uz, Initial residual = 0.0002751453184, Final residual = 2.230986621e-13, No Iterations 2
diagonal:  Solving for rhoEv, Initial residual = 0, Final residual = 0, No Iterations 0
Calculating energy equation MHD term

max(nD_e-) [0 -3 0 0 0 0 0] 0
min(betaHall) [0 0 0 0 0 0 0] 0
Calculating D

min(D) [2 0 -4 0 0 -2 0] 0.00015925001
Hall tensor allocated

max(hallParameter) [0 0 0 0 0 0 0] (1 0 -0 -0 1 -0 0 0 1)
Returning current density with Hall correction

diagonal:  Solving for rhoE, Initial residual = 0, Final residual = 0, No Iterations 0
Q_mag is working. max(Q_mag) = Calculating energy equation MHD term

max(nD_e-) [0 -3 0 0 0 0 0] 0
min(betaHall) [0 0 0 0 0 0 0] 0
Calculating D

min(D) [2 0 -4 0 0 -2 0] 0.00015925001
Hall tensor allocated

max(hallParameter) [0 0 0 0 0 0 0] (1 0 -0 -0 1 -0 0 0 1)
Returning current density with Hall correction

max(Q) [1 -1 -3 0 0 0 0] 652420161.6
smoothSolver:  Solving for hevel, Initial residual = 8.826868124e-08, Final residual = 9.698191909e-17, No Iterations 2
Q_mag is working
smoothSolver:  Solving for e, Initial residual = 1.124765998e-07, Final residual = 4.518086596e-16, No Iterations 2
Phase no 1.0  ExecutionTime = 24.02 s  ClockTime = 24 s  Iteration no 21 (1.08 s)

Mean and max Courant Numbers = 0.01718602842 0.3001980515
deltaT = 1.569858713e-08
Time = 0.001430345369

diagonal:  Solving for rho, Initial residual = 0, Final residual = 0, No Iterations 0
diagonal:  Solving for rhoUx, Initial residual = 0, Final residual = 0, No Iterations 0
diagonal:  Solving for rhoUy, Initial residual = 0, Final residual = 0, No Iterations 0
diagonal:  Solving for rhoUz, Initial residual = 0, Final residual = 0, No Iterations 0
Calculating momentum equation MHD term

max(nD_e-) [0 -3 0 0 0 0 0] 0
min(betaHall) [0 0 0 0 0 0 0] 0
Calculating D

min(D) [2 0 -4 0 0 -2 0] 0.00015925001
Hall tensor allocated

max(hallParameter) [0 0 0 0 0 0 0] (1 0 -0 -0 1 -0 0 0 1)
Returning current density with Hall correction

smoothSolver:  Solving for Ux, Initial residual = 1.979686893e-06, Final residual = 1.271521873e-15, No Iterations 2
smoothSolver:  Solving for Uy, Initial residual = 3.739045155e-06, Final residual = 2.340830423e-15, No Iterations 2
smoothSolver:  Solving for Uz, Initial residual = 0.000275008982, Final residual = 2.229902534e-13, No Iterations 2
diagonal:  Solving for rhoEv, Initial residual = 0, Final residual = 0, No Iterations 0
Calculating energy equation MHD term

max(nD_e-) [0 -3 0 0 0 0 0] 0
min(betaHall) [0 0 0 0 0 0 0] 0
Calculating D

min(D) [2 0 -4 0 0 -2 0] 0.00015925001
Hall tensor allocated

max(hallParameter) [0 0 0 0 0 0 0] (1 0 -0 -0 1 -0 0 0 1)
Returning current density with Hall correction

diagonal:  Solving for rhoE, Initial residual = 0, Final residual = 0, No Iterations 0
Q_mag is working. max(Q_mag) = Calculating energy equation MHD term

max(nD_e-) [0 -3 0 0 0 0 0] 0
min(betaHall) [0 0 0 0 0 0 0] 0
Calculating D

min(D) [2 0 -4 0 0 -2 0] 0.00015925001
Hall tensor allocated

max(hallParameter) [0 0 0 0 0 0 0] (1 0 -0 -0 1 -0 0 0 1)
Returning current density with Hall correction

max(Q) [1 -1 -3 0 0 0 0] 652408481.3
smoothSolver:  Solving for hevel, Initial residual = 8.826851874e-08, Final residual = 9.671581497e-17, No Iterations 2
Q_mag is working
smoothSolver:  Solving for e, Initial residual = 1.124758544e-07, Final residual = 4.515153398e-16, No Iterations 2
Phase no 1.0  ExecutionTime = 25.09 s  ClockTime = 25 s  Iteration no 22 (1.07 s)

Mean and max Courant Numbers = 0.01718601061 0.3001987282
deltaT = 1.569858713e-08
Time = 0.001430361068

diagonal:  Solving for rho, Initial residual = 0, Final residual = 0, No Iterations 0
diagonal:  Solving for rhoUx, Initial residual = 0, Final residual = 0, No Iterations 0
diagonal:  Solving for rhoUy, Initial residual = 0, Final residual = 0, No Iterations 0
diagonal:  Solving for rhoUz, Initial residual = 0, Final residual = 0, No Iterations 0
Calculating momentum equation MHD term

max(nD_e-) [0 -3 0 0 0 0 0] 0
min(betaHall) [0 0 0 0 0 0 0] 0
Calculating D

min(D) [2 0 -4 0 0 -2 0] 0.00015925001
Hall tensor allocated

max(hallParameter) [0 0 0 0 0 0 0] (1 0 -0 -0 1 -0 0 0 1)
Returning current density with Hall correction

smoothSolver:  Solving for Ux, Initial residual = 1.979654301e-06, Final residual = 1.271318688e-15, No Iterations 2
smoothSolver:  Solving for Uy, Initial residual = 3.738961522e-06, Final residual = 2.340726252e-15, No Iterations 2
smoothSolver:  Solving for Uz, Initial residual = 0.0002748727885, Final residual = 2.22881738e-13, No Iterations 2
diagonal:  Solving for rhoEv, Initial residual = 0, Final residual = 0, No Iterations 0
Calculating energy equation MHD term

max(nD_e-) [0 -3 0 0 0 0 0] 0
min(betaHall) [0 0 0 0 0 0 0] 0
Calculating D

min(D) [2 0 -4 0 0 -2 0] 0.00015925001
Hall tensor allocated

max(hallParameter) [0 0 0 0 0 0 0] (1 0 -0 -0 1 -0 0 0 1)
Returning current density with Hall correction

diagonal:  Solving for rhoE, Initial residual = 0, Final residual = 0, No Iterations 0
Q_mag is working. max(Q_mag) = Calculating energy equation MHD term

max(nD_e-) [0 -3 0 0 0 0 0] 0
min(betaHall) [0 0 0 0 0 0 0] 0
Calculating D

min(D) [2 0 -4 0 0 -2 0] 0.00015925001
Hall tensor allocated

max(hallParameter) [0 0 0 0 0 0 0] (1 0 -0 -0 1 -0 0 0 1)
Returning current density with Hall correction

max(Q) [1 -1 -3 0 0 0 0] 652396666.2
smoothSolver:  Solving for hevel, Initial residual = 8.826834453e-08, Final residual = 9.705513023e-17, No Iterations 2
Q_mag is working
smoothSolver:  Solving for e, Initial residual = 1.124750942e-07, Final residual = 4.516410746e-16, No Iterations 2
Phase no 1.0  ExecutionTime = 26.16 s  ClockTime = 26 s  Iteration no 23 (1.07 s)

Mean and max Courant Numbers = 0.01718599279 0.3001994052
deltaT = 1.569858713e-08
Time = 0.001430376766

diagonal:  Solving for rho, Initial residual = 0, Final residual = 0, No Iterations 0
diagonal:  Solving for rhoUx, Initial residual = 0, Final residual = 0, No Iterations 0
diagonal:  Solving for rhoUy, Initial residual = 0, Final residual = 0, No Iterations 0
diagonal:  Solving for rhoUz, Initial residual = 0, Final residual = 0, No Iterations 0
Calculating momentum equation MHD term

max(nD_e-) [0 -3 0 0 0 0 0] 0
min(betaHall) [0 0 0 0 0 0 0] 0
Calculating D

min(D) [2 0 -4 0 0 -2 0] 0.00015925001
Hall tensor allocated

max(hallParameter) [0 0 0 0 0 0 0] (1 0 -0 -0 1 -0 0 0 1)
Returning current density with Hall correction

smoothSolver:  Solving for Ux, Initial residual = 1.979621727e-06, Final residual = 1.271220649e-15, No Iterations 2
smoothSolver:  Solving for Uy, Initial residual = 3.738877903e-06, Final residual = 2.341092904e-15, No Iterations 2
smoothSolver:  Solving for Uz, Initial residual = 0.0002747367375, Final residual = 2.22773638e-13, No Iterations 2
diagonal:  Solving for rhoEv, Initial residual = 0, Final residual = 0, No Iterations 0
Calculating energy equation MHD term

max(nD_e-) [0 -3 0 0 0 0 0] 0
min(betaHall) [0 0 0 0 0 0 0] 0
Calculating D

min(D) [2 0 -4 0 0 -2 0] 0.00015925001
Hall tensor allocated

max(hallParameter) [0 0 0 0 0 0 0] (1 0 -0 -0 1 -0 0 0 1)
Returning current density with Hall correction

diagonal:  Solving for rhoE, Initial residual = 0, Final residual = 0, No Iterations 0
Q_mag is working. max(Q_mag) = Calculating energy equation MHD term

max(nD_e-) [0 -3 0 0 0 0 0] 0
min(betaHall) [0 0 0 0 0 0 0] 0
Calculating D

min(D) [2 0 -4 0 0 -2 0] 0.00015925001
Hall tensor allocated

max(hallParameter) [0 0 0 0 0 0 0] (1 0 -0 -0 1 -0 0 0 1)
Returning current density with Hall correction

max(Q) [1 -1 -3 0 0 0 0] 652384716.2
smoothSolver:  Solving for hevel, Initial residual = 8.826815862e-08, Final residual = 9.707946879e-17, No Iterations 2
Q_mag is working
smoothSolver:  Solving for e, Initial residual = 1.124743192e-07, Final residual = 4.521261196e-16, No Iterations 2
Phase no 1.0  ExecutionTime = 27.23 s  ClockTime = 27 s  Iteration no 24 (1.07 s)

Mean and max Courant Numbers = 0.01718597497 0.3002000824
deltaT = 1.569858713e-08
Time = 0.001430392465

diagonal:  Solving for rho, Initial residual = 0, Final residual = 0, No Iterations 0
diagonal:  Solving for rhoUx, Initial residual = 0, Final residual = 0, No Iterations 0
diagonal:  Solving for rhoUy, Initial residual = 0, Final residual = 0, No Iterations 0
diagonal:  Solving for rhoUz, Initial residual = 0, Final residual = 0, No Iterations 0
Calculating momentum equation MHD term

max(nD_e-) [0 -3 0 0 0 0 0] 0
min(betaHall) [0 0 0 0 0 0 0] 0
Calculating D

min(D) [2 0 -4 0 0 -2 0] 0.00015925001
Hall tensor allocated

max(hallParameter) [0 0 0 0 0 0 0] (1 0 -0 -0 1 -0 0 0 1)
Returning current density with Hall correction

smoothSolver:  Solving for Ux, Initial residual = 1.979589169e-06, Final residual = 1.270832853e-15, No Iterations 2
smoothSolver:  Solving for Uy, Initial residual = 3.738794299e-06, Final residual = 2.340678221e-15, No Iterations 2
smoothSolver:  Solving for Uz, Initial residual = 0.0002746008288, Final residual = 2.226656332e-13, No Iterations 2
diagonal:  Solving for rhoEv, Initial residual = 0, Final residual = 0, No Iterations 0
Calculating energy equation MHD term

max(nD_e-) [0 -3 0 0 0 0 0] 0
min(betaHall) [0 0 0 0 0 0 0] 0
Calculating D

min(D) [2 0 -4 0 0 -2 0] 0.00015925001
Hall tensor allocated

max(hallParameter) [0 0 0 0 0 0 0] (1 0 -0 -0 1 -0 0 0 1)
Returning current density with Hall correction

diagonal:  Solving for rhoE, Initial residual = 0, Final residual = 0, No Iterations 0
Q_mag is working. max(Q_mag) = Calculating energy equation MHD term

max(nD_e-) [0 -3 0 0 0 0 0] 0
min(betaHall) [0 0 0 0 0 0 0] 0
Calculating D

min(D) [2 0 -4 0 0 -2 0] 0.00015925001
Hall tensor allocated

max(hallParameter) [0 0 0 0 0 0 0] (1 0 -0 -0 1 -0 0 0 1)
Returning current density with Hall correction

max(Q) [1 -1 -3 0 0 0 0] 652372631.3
smoothSolver:  Solving for hevel, Initial residual = 8.826796068e-08, Final residual = 9.636195551e-17, No Iterations 2
Q_mag is working
smoothSolver:  Solving for e, Initial residual = 1.124735297e-07, Final residual = 4.516717887e-16, No Iterations 2
Phase no 1.0  ExecutionTime = 28.3 s  ClockTime = 28 s  Iteration no 25 (1.07 s)

Mean and max Courant Numbers = 0.01718595714 0.3002007597
deltaT = 1.569858713e-08
Time = 0.001430408163

diagonal:  Solving for rho, Initial residual = 0, Final residual = 0, No Iterations 0
diagonal:  Solving for rhoUx, Initial residual = 0, Final residual = 0, No Iterations 0
diagonal:  Solving for rhoUy, Initial residual = 0, Final residual = 0, No Iterations 0
diagonal:  Solving for rhoUz, Initial residual = 0, Final residual = 0, No Iterations 0
Calculating momentum equation MHD term

max(nD_e-) [0 -3 0 0 0 0 0] 0
min(betaHall) [0 0 0 0 0 0 0] 0
Calculating D

min(D) [2 0 -4 0 0 -2 0] 0.00015925001
Hall tensor allocated

max(hallParameter) [0 0 0 0 0 0 0] (1 0 -0 -0 1 -0 0 0 1)
Returning current density with Hall correction

smoothSolver:  Solving for Ux, Initial residual = 1.979556627e-06, Final residual = 1.271014947e-15, No Iterations 2
smoothSolver:  Solving for Uy, Initial residual = 3.738710709e-06, Final residual = 2.341872506e-15, No Iterations 2
smoothSolver:  Solving for Uz, Initial residual = 0.0002744650611, Final residual = 2.225576165e-13, No Iterations 2
diagonal:  Solving for rhoEv, Initial residual = 0, Final residual = 0, No Iterations 0
Calculating energy equation MHD term

max(nD_e-) [0 -3 0 0 0 0 0] 0
min(betaHall) [0 0 0 0 0 0 0] 0
Calculating D

min(D) [2 0 -4 0 0 -2 0] 0.00015925001
Hall tensor allocated

max(hallParameter) [0 0 0 0 0 0 0] (1 0 -0 -0 1 -0 0 0 1)
Returning current density with Hall correction

diagonal:  Solving for rhoE, Initial residual = 0, Final residual = 0, No Iterations 0
Q_mag is working. max(Q_mag) = Calculating energy equation MHD term

max(nD_e-) [0 -3 0 0 0 0 0] 0
min(betaHall) [0 0 0 0 0 0 0] 0
Calculating D

min(D) [2 0 -4 0 0 -2 0] 0.00015925001
Hall tensor allocated

max(hallParameter) [0 0 0 0 0 0 0] (1 0 -0 -0 1 -0 0 0 1)
Returning current density with Hall correction

max(Q) [1 -1 -3 0 0 0 0] 652360411.7
smoothSolver:  Solving for hevel, Initial residual = 8.826775061e-08, Final residual = 9.673878182e-17, No Iterations 2
Q_mag is working
smoothSolver:  Solving for e, Initial residual = 1.124727252e-07, Final residual = 4.517931632e-16, No Iterations 2
Phase no 1.0  ExecutionTime = 29.4 s  ClockTime = 29 s  Iteration no 26 (1.1 s)

Mean and max Courant Numbers = 0.01718593932 0.3002014373
deltaT = 1.569858713e-08
Time = 0.001430423862

diagonal:  Solving for rho, Initial residual = 0, Final residual = 0, No Iterations 0
diagonal:  Solving for rhoUx, Initial residual = 0, Final residual = 0, No Iterations 0
diagonal:  Solving for rhoUy, Initial residual = 0, Final residual = 0, No Iterations 0
diagonal:  Solving for rhoUz, Initial residual = 0, Final residual = 0, No Iterations 0
Calculating momentum equation MHD term

max(nD_e-) [0 -3 0 0 0 0 0] 0
min(betaHall) [0 0 0 0 0 0 0] 0
Calculating D

min(D) [2 0 -4 0 0 -2 0] 0.00015925001
Hall tensor allocated

max(hallParameter) [0 0 0 0 0 0 0] (1 0 -0 -0 1 -0 0 0 1)
Returning current density with Hall correction

smoothSolver:  Solving for Ux, Initial residual = 1.979524103e-06, Final residual = 1.271251534e-15, No Iterations 2
smoothSolver:  Solving for Uy, Initial residual = 3.738627133e-06, Final residual = 2.340542473e-15, No Iterations 2
smoothSolver:  Solving for Uz, Initial residual = 0.0002743294343, Final residual = 2.224484925e-13, No Iterations 2
diagonal:  Solving for rhoEv, Initial residual = 0, Final residual = 0, No Iterations 0
Calculating energy equation MHD term

max(nD_e-) [0 -3 0 0 0 0 0] 0
min(betaHall) [0 0 0 0 0 0 0] 0
Calculating D

min(D) [2 0 -4 0 0 -2 0] 0.00015925001
Hall tensor allocated

max(hallParameter) [0 0 0 0 0 0 0] (1 0 -0 -0 1 -0 0 0 1)
Returning current density with Hall correction

diagonal:  Solving for rhoE, Initial residual = 0, Final residual = 0, No Iterations 0
Q_mag is working. max(Q_mag) = Calculating energy equation MHD term

max(nD_e-) [0 -3 0 0 0 0 0] 0
min(betaHall) [0 0 0 0 0 0 0] 0
Calculating D

min(D) [2 0 -4 0 0 -2 0] 0.00015925001
Hall tensor allocated

max(hallParameter) [0 0 0 0 0 0 0] (1 0 -0 -0 1 -0 0 0 1)
Returning current density with Hall correction

max(Q) [1 -1 -3 0 0 0 0] 652348057.3
smoothSolver:  Solving for hevel, Initial residual = 8.826752829e-08, Final residual = 9.688983795e-17, No Iterations 2
Q_mag is working
smoothSolver:  Solving for e, Initial residual = 1.124719053e-07, Final residual = 4.515197245e-16, No Iterations 2
Phase no 1.0  ExecutionTime = 30.47 s  ClockTime = 30 s  Iteration no 27 (1.07 s)

Mean and max Courant Numbers = 0.0171859215 0.300202115
deltaT = 1.569858713e-08
Time = 0.00143043956

diagonal:  Solving for rho, Initial residual = 0, Final residual = 0, No Iterations 0
diagonal:  Solving for rhoUx, Initial residual = 0, Final residual = 0, No Iterations 0
diagonal:  Solving for rhoUy, Initial residual = 0, Final residual = 0, No Iterations 0
diagonal:  Solving for rhoUz, Initial residual = 0, Final residual = 0, No Iterations 0
Calculating momentum equation MHD term

max(nD_e-) [0 -3 0 0 0 0 0] 0
min(betaHall) [0 0 0 0 0 0 0] 0
Calculating D

min(D) [2 0 -4 0 0 -2 0] 0.00015925001
Hall tensor allocated

max(hallParameter) [0 0 0 0 0 0 0] (1 0 -0 -0 1 -0 0 0 1)
Returning current density with Hall correction

smoothSolver:  Solving for Ux, Initial residual = 1.979491595e-06, Final residual = 1.271134197e-15, No Iterations 2
smoothSolver:  Solving for Uy, Initial residual = 3.738543572e-06, Final residual = 2.34106423e-15, No Iterations 2
smoothSolver:  Solving for Uz, Initial residual = 0.0002741939486, Final residual = 2.223416524e-13, No Iterations 2
diagonal:  Solving for rhoEv, Initial residual = 0, Final residual = 0, No Iterations 0
Calculating energy equation MHD term

max(nD_e-) [0 -3 0 0 0 0 0] 0
min(betaHall) [0 0 0 0 0 0 0] 0
Calculating D

min(D) [2 0 -4 0 0 -2 0] 0.00015925001
Hall tensor allocated

max(hallParameter) [0 0 0 0 0 0 0] (1 0 -0 -0 1 -0 0 0 1)
Returning current density with Hall correction

diagonal:  Solving for rhoE, Initial residual = 0, Final residual = 0, No Iterations 0
Q_mag is working. max(Q_mag) = Calculating energy equation MHD term

max(nD_e-) [0 -3 0 0 0 0 0] 0
min(betaHall) [0 0 0 0 0 0 0] 0
Calculating D

min(D) [2 0 -4 0 0 -2 0] 0.00015925001
Hall tensor allocated

max(hallParameter) [0 0 0 0 0 0 0] (1 0 -0 -0 1 -0 0 0 1)
Returning current density with Hall correction

max(Q) [1 -1 -3 0 0 0 0] 652335568.2
smoothSolver:  Solving for hevel, Initial residual = 8.826729345e-08, Final residual = 9.701078948e-17, No Iterations 2
Q_mag is working
smoothSolver:  Solving for e, Initial residual = 1.124710698e-07, Final residual = 4.516880173e-16, No Iterations 2
Phase no 1.0  ExecutionTime = 31.54 s  ClockTime = 32 s  Iteration no 28 (1.07 s)

Mean and max Courant Numbers = 0.01718590367 0.3002027929
deltaT = 1.569858713e-08
Time = 0.001430455259

diagonal:  Solving for rho, Initial residual = 0, Final residual = 0, No Iterations 0
diagonal:  Solving for rhoUx, Initial residual = 0, Final residual = 0, No Iterations 0
diagonal:  Solving for rhoUy, Initial residual = 0, Final residual = 0, No Iterations 0
diagonal:  Solving for rhoUz, Initial residual = 0, Final residual = 0, No Iterations 0
Calculating momentum equation MHD term

max(nD_e-) [0 -3 0 0 0 0 0] 0
min(betaHall) [0 0 0 0 0 0 0] 0
Calculating D

min(D) [2 0 -4 0 0 -2 0] 0.00015925001
Hall tensor allocated

max(hallParameter) [0 0 0 0 0 0 0] (1 0 -0 -0 1 -0 0 0 1)
Returning current density with Hall correction

smoothSolver:  Solving for Ux, Initial residual = 1.979459104e-06, Final residual = 1.270897944e-15, No Iterations 2
smoothSolver:  Solving for Uy, Initial residual = 3.738460027e-06, Final residual = 2.340896965e-15, No Iterations 2
smoothSolver:  Solving for Uz, Initial residual = 0.0002740586033, Final residual = 2.222328495e-13, No Iterations 2
diagonal:  Solving for rhoEv, Initial residual = 0, Final residual = 0, No Iterations 0
Calculating energy equation MHD term

max(nD_e-) [0 -3 0 0 0 0 0] 0
min(betaHall) [0 0 0 0 0 0 0] 0
Calculating D

min(D) [2 0 -4 0 0 -2 0] 0.00015925001
Hall tensor allocated

max(hallParameter) [0 0 0 0 0 0 0] (1 0 -0 -0 1 -0 0 0 1)
Returning current density with Hall correction

diagonal:  Solving for rhoE, Initial residual = 0, Final residual = 0, No Iterations 0
Q_mag is working. max(Q_mag) = Calculating energy equation MHD term

max(nD_e-) [0 -3 0 0 0 0 0] 0
min(betaHall) [0 0 0 0 0 0 0] 0
Calculating D

min(D) [2 0 -4 0 0 -2 0] 0.00015925001
Hall tensor allocated

max(hallParameter) [0 0 0 0 0 0 0] (1 0 -0 -0 1 -0 0 0 1)
Returning current density with Hall correction

max(Q) [1 -1 -3 0 0 0 0] 652322944.3
smoothSolver:  Solving for hevel, Initial residual = 8.826704516e-08, Final residual = 9.680854072e-17, No Iterations 2
Q_mag is working
smoothSolver:  Solving for e, Initial residual = 1.12470219e-07, Final residual = 4.515554895e-16, No Iterations 2
Phase no 1.0  ExecutionTime = 32.62 s  ClockTime = 33 s  Iteration no 29 (1.08 s)

Mean and max Courant Numbers = 0.01718588585 0.300203471
deltaT = 1.569858713e-08
Time = 0.001430470958

diagonal:  Solving for rho, Initial residual = 0, Final residual = 0, No Iterations 0
diagonal:  Solving for rhoUx, Initial residual = 0, Final residual = 0, No Iterations 0
diagonal:  Solving for rhoUy, Initial residual = 0, Final residual = 0, No Iterations 0
diagonal:  Solving for rhoUz, Initial residual = 0, Final residual = 0, No Iterations 0
Calculating momentum equation MHD term

max(nD_e-) [0 -3 0 0 0 0 0] 0
min(betaHall) [0 0 0 0 0 0 0] 0
Calculating D

min(D) [2 0 -4 0 0 -2 0] 0.00015925001
Hall tensor allocated

max(hallParameter) [0 0 0 0 0 0 0] (1 0 -0 -0 1 -0 0 0 1)
Returning current density with Hall correction

smoothSolver:  Solving for Ux, Initial residual = 1.97942663e-06, Final residual = 1.271292198e-15, No Iterations 2
smoothSolver:  Solving for Uy, Initial residual = 3.738376497e-06, Final residual = 2.340070593e-15, No Iterations 2
smoothSolver:  Solving for Uz, Initial residual = 0.0002739233969, Final residual = 2.221247757e-13, No Iterations 2
diagonal:  Solving for rhoEv, Initial residual = 0, Final residual = 0, No Iterations 0
Calculating energy equation MHD term

max(nD_e-) [0 -3 0 0 0 0 0] 0
min(betaHall) [0 0 0 0 0 0 0] 0
Calculating D

min(D) [2 0 -4 0 0 -2 0] 0.00015925001
Hall tensor allocated

max(hallParameter) [0 0 0 0 0 0 0] (1 0 -0 -0 1 -0 0 0 1)
Returning current density with Hall correction

diagonal:  Solving for rhoE, Initial residual = 0, Final residual = 0, No Iterations 0
Q_mag is working. max(Q_mag) = Calculating energy equation MHD term

max(nD_e-) [0 -3 0 0 0 0 0] 0
min(betaHall) [0 0 0 0 0 0 0] 0
Calculating D

min(D) [2 0 -4 0 0 -2 0] 0.00015925001
Hall tensor allocated

max(hallParameter) [0 0 0 0 0 0 0] (1 0 -0 -0 1 -0 0 0 1)
Returning current density with Hall correction

max(Q) [1 -1 -3 0 0 0 0] 652310185.7
smoothSolver:  Solving for hevel, Initial residual = 8.826678391e-08, Final residual = 9.740765006e-17, No Iterations 2
Q_mag is working
smoothSolver:  Solving for e, Initial residual = 1.124693526e-07, Final residual = 4.515562679e-16, No Iterations 2
Phase no 1.0  ExecutionTime = 33.7 s  ClockTime = 34 s  Iteration no 30 (1.08 s)

Mean and max Courant Numbers = 0.01718586802 0.3002041492
deltaT = 1.569858713e-08
Time = 0.001430486656

diagonal:  Solving for rho, Initial residual = 0, Final residual = 0, No Iterations 0
diagonal:  Solving for rhoUx, Initial residual = 0, Final residual = 0, No Iterations 0
diagonal:  Solving for rhoUy, Initial residual = 0, Final residual = 0, No Iterations 0
diagonal:  Solving for rhoUz, Initial residual = 0, Final residual = 0, No Iterations 0
Calculating momentum equation MHD term

max(nD_e-) [0 -3 0 0 0 0 0] 0
min(betaHall) [0 0 0 0 0 0 0] 0
Calculating D

min(D) [2 0 -4 0 0 -2 0] 0.00015925001
Hall tensor allocated

max(hallParameter) [0 0 0 0 0 0 0] (1 0 -0 -0 1 -0 0 0 1)
Returning current density with Hall correction

smoothSolver:  Solving for Ux, Initial residual = 1.979394172e-06, Final residual = 1.270839884e-15, No Iterations 2
smoothSolver:  Solving for Uy, Initial residual = 3.73829298e-06, Final residual = 2.33967154e-15, No Iterations 2
smoothSolver:  Solving for Uz, Initial residual = 0.0002737883305, Final residual = 2.220175309e-13, No Iterations 2
diagonal:  Solving for rhoEv, Initial residual = 0, Final residual = 0, No Iterations 0
Calculating energy equation MHD term

max(nD_e-) [0 -3 0 0 0 0 0] 0
min(betaHall) [0 0 0 0 0 0 0] 0
Calculating D

min(D) [2 0 -4 0 0 -2 0] 0.00015925001
Hall tensor allocated

max(hallParameter) [0 0 0 0 0 0 0] (1 0 -0 -0 1 -0 0 0 1)
Returning current density with Hall correction

diagonal:  Solving for rhoE, Initial residual = 0, Final residual = 0, No Iterations 0
Q_mag is working. max(Q_mag) = Calculating energy equation MHD term

max(nD_e-) [0 -3 0 0 0 0 0] 0
min(betaHall) [0 0 0 0 0 0 0] 0
Calculating D

min(D) [2 0 -4 0 0 -2 0] 0.00015925001
Hall tensor allocated

max(hallParameter) [0 0 0 0 0 0 0] (1 0 -0 -0 1 -0 0 0 1)
Returning current density with Hall correction

max(Q) [1 -1 -3 0 0 0 0] 652297292.5
smoothSolver:  Solving for hevel, Initial residual = 8.826660343e-08, Final residual = 9.642176016e-17, No Iterations 2
Q_mag is working
smoothSolver:  Solving for e, Initial residual = 1.1246847e-07, Final residual = 4.51834915e-16, No Iterations 2
Phase no 1.0  ExecutionTime = 34.78 s  ClockTime = 35 s  Iteration no 31 (1.08 s)

Mean and max Courant Numbers = 0.01718585019 0.3002048277
deltaT = 1.569858713e-08
Time = 0.001430502355

diagonal:  Solving for rho, Initial residual = 0, Final residual = 0, No Iterations 0
diagonal:  Solving for rhoUx, Initial residual = 0, Final residual = 0, No Iterations 0
diagonal:  Solving for rhoUy, Initial residual = 0, Final residual = 0, No Iterations 0
diagonal:  Solving for rhoUz, Initial residual = 0, Final residual = 0, No Iterations 0
Calculating momentum equation MHD term

max(nD_e-) [0 -3 0 0 0 0 0] 0
min(betaHall) [0 0 0 0 0 0 0] 0
Calculating D

min(D) [2 0 -4 0 0 -2 0] 0.00015925001
Hall tensor allocated

max(hallParameter) [0 0 0 0 0 0 0] (1 0 -0 -0 1 -0 0 0 1)
Returning current density with Hall correction

smoothSolver:  Solving for Ux, Initial residual = 1.97936173e-06, Final residual = 1.271258565e-15, No Iterations 2
smoothSolver:  Solving for Uy, Initial residual = 3.738209477e-06, Final residual = 2.34054727e-15, No Iterations 2
smoothSolver:  Solving for Uz, Initial residual = 0.0002736534032, Final residual = 2.219107671e-13, No Iterations 2
diagonal:  Solving for rhoEv, Initial residual = 0, Final residual = 0, No Iterations 0
Calculating energy equation MHD term

max(nD_e-) [0 -3 0 0 0 0 0] 0
min(betaHall) [0 0 0 0 0 0 0] 0
Calculating D

min(D) [2 0 -4 0 0 -2 0] 0.00015925001
Hall tensor allocated

max(hallParameter) [0 0 0 0 0 0 0] (1 0 -0 -0 1 -0 0 0 1)
Returning current density with Hall correction

diagonal:  Solving for rhoE, Initial residual = 0, Final residual = 0, No Iterations 0
Q_mag is working. max(Q_mag) = Calculating energy equation MHD term

max(nD_e-) [0 -3 0 0 0 0 0] 0
min(betaHall) [0 0 0 0 0 0 0] 0
Calculating D

min(D) [2 0 -4 0 0 -2 0] 0.00015925001
Hall tensor allocated

max(hallParameter) [0 0 0 0 0 0 0] (1 0 -0 -0 1 -0 0 0 1)
Returning current density with Hall correction

max(Q) [1 -1 -3 0 0 0 0] 652284264.6
smoothSolver:  Solving for hevel, Initial residual = 8.826642672e-08, Final residual = 9.720853714e-17, No Iterations 2
Q_mag is working
smoothSolver:  Solving for e, Initial residual = 1.124675715e-07, Final residual = 4.518151336e-16, No Iterations 2
Phase no 1.0  ExecutionTime = 35.87 s  ClockTime = 36 s  Iteration no 32 (1.09 s)

Mean and max Courant Numbers = 0.01718583235 0.3002055063
deltaT = 1.569858713e-08
Time = 0.001430518053

diagonal:  Solving for rho, Initial residual = 0, Final residual = 0, No Iterations 0
diagonal:  Solving for rhoUx, Initial residual = 0, Final residual = 0, No Iterations 0
diagonal:  Solving for rhoUy, Initial residual = 0, Final residual = 0, No Iterations 0
diagonal:  Solving for rhoUz, Initial residual = 0, Final residual = 0, No Iterations 0
Calculating momentum equation MHD term

max(nD_e-) [0 -3 0 0 0 0 0] 0
min(betaHall) [0 0 0 0 0 0 0] 0
Calculating D

min(D) [2 0 -4 0 0 -2 0] 0.00015925001
Hall tensor allocated

max(hallParameter) [0 0 0 0 0 0 0] (1 0 -0 -0 1 -0 0 0 1)
Returning current density with Hall correction

smoothSolver:  Solving for Ux, Initial residual = 1.979329305e-06, Final residual = 1.271091714e-15, No Iterations 2
smoothSolver:  Solving for Uy, Initial residual = 3.73812599e-06, Final residual = 2.340312019e-15, No Iterations 2
smoothSolver:  Solving for Uz, Initial residual = 0.0002735186155, Final residual = 2.21802632e-13, No Iterations 2
diagonal:  Solving for rhoEv, Initial residual = 0, Final residual = 0, No Iterations 0
Calculating energy equation MHD term

max(nD_e-) [0 -3 0 0 0 0 0] 0
min(betaHall) [0 0 0 0 0 0 0] 0
Calculating D

min(D) [2 0 -4 0 0 -2 0] 0.00015925001
Hall tensor allocated

max(hallParameter) [0 0 0 0 0 0 0] (1 0 -0 -0 1 -0 0 0 1)
Returning current density with Hall correction

diagonal:  Solving for rhoE, Initial residual = 0, Final residual = 0, No Iterations 0
Q_mag is working. max(Q_mag) = Calculating energy equation MHD term

max(nD_e-) [0 -3 0 0 0 0 0] 0
min(betaHall) [0 0 0 0 0 0 0] 0
Calculating D

min(D) [2 0 -4 0 0 -2 0] 0.00015925001
Hall tensor allocated

max(hallParameter) [0 0 0 0 0 0 0] (1 0 -0 -0 1 -0 0 0 1)
Returning current density with Hall correction

max(Q) [1 -1 -3 0 0 0 0] 652271102
smoothSolver:  Solving for hevel, Initial residual = 8.826623694e-08, Final residual = 9.71200174e-17, No Iterations 2
Q_mag is working
smoothSolver:  Solving for e, Initial residual = 1.124666575e-07, Final residual = 4.51303063e-16, No Iterations 2
Phase no 1.0  ExecutionTime = 37.01 s  ClockTime = 37 s  Iteration no 33 (1.14 s)

Mean and max Courant Numbers = 0.01718581451 0.3002061851
deltaT = 1.569858713e-08
Time = 0.001430533752

diagonal:  Solving for rho, Initial residual = 0, Final residual = 0, No Iterations 0
diagonal:  Solving for rhoUx, Initial residual = 0, Final residual = 0, No Iterations 0
diagonal:  Solving for rhoUy, Initial residual = 0, Final residual = 0, No Iterations 0
diagonal:  Solving for rhoUz, Initial residual = 0, Final residual = 0, No Iterations 0
Calculating momentum equation MHD term

max(nD_e-) [0 -3 0 0 0 0 0] 0
min(betaHall) [0 0 0 0 0 0 0] 0
Calculating D

min(D) [2 0 -4 0 0 -2 0] 0.00015925001
Hall tensor allocated

max(hallParameter) [0 0 0 0 0 0 0] (1 0 -0 -0 1 -0 0 0 1)
Returning current density with Hall correction

smoothSolver:  Solving for Ux, Initial residual = 1.979296896e-06, Final residual = 1.270788123e-15, No Iterations 2
smoothSolver:  Solving for Uy, Initial residual = 3.738042518e-06, Final residual = 2.340275656e-15, No Iterations 2
smoothSolver:  Solving for Uz, Initial residual = 0.0002733839652, Final residual = 2.216956832e-13, No Iterations 2
diagonal:  Solving for rhoEv, Initial residual = 0, Final residual = 0, No Iterations 0
Calculating energy equation MHD term

max(nD_e-) [0 -3 0 0 0 0 0] 0
min(betaHall) [0 0 0 0 0 0 0] 0
Calculating D

min(D) [2 0 -4 0 0 -2 0] 0.00015925001
Hall tensor allocated

max(hallParameter) [0 0 0 0 0 0 0] (1 0 -0 -0 1 -0 0 0 1)
Returning current density with Hall correction

diagonal:  Solving for rhoE, Initial residual = 0, Final residual = 0, No Iterations 0
Q_mag is working. max(Q_mag) = Calculating energy equation MHD term

max(nD_e-) [0 -3 0 0 0 0 0] 0
min(betaHall) [0 0 0 0 0 0 0] 0
Calculating D

min(D) [2 0 -4 0 0 -2 0] 0.00015925001
Hall tensor allocated

max(hallParameter) [0 0 0 0 0 0 0] (1 0 -0 -0 1 -0 0 0 1)
Returning current density with Hall correction

max(Q) [1 -1 -3 0 0 0 0] 652257804.9
smoothSolver:  Solving for hevel, Initial residual = 8.826605974e-08, Final residual = 9.676052806e-17, No Iterations 2
Q_mag is working
smoothSolver:  Solving for e, Initial residual = 1.124657276e-07, Final residual = 4.51146907e-16, No Iterations 2
Phase no 1.0  ExecutionTime = 38.09 s  ClockTime = 38 s  Iteration no 34 (1.08 s)

Mean and max Courant Numbers = 0.01718579667 0.3002068642
deltaT = 1.569858713e-08
Time = 0.001430549451

diagonal:  Solving for rho, Initial residual = 0, Final residual = 0, No Iterations 0
diagonal:  Solving for rhoUx, Initial residual = 0, Final residual = 0, No Iterations 0
diagonal:  Solving for rhoUy, Initial residual = 0, Final residual = 0, No Iterations 0
diagonal:  Solving for rhoUz, Initial residual = 0, Final residual = 0, No Iterations 0
Calculating momentum equation MHD term

max(nD_e-) [0 -3 0 0 0 0 0] 0
min(betaHall) [0 0 0 0 0 0 0] 0
Calculating D

min(D) [2 0 -4 0 0 -2 0] 0.00015925001
Hall tensor allocated


min(D) [2 0 -4 0 0 -2 0] 0.00015925001
Hall tensor allocated

max(hallParameter) [0 0 0 0 0 0 0] (1 0 -0 -0 1 -0 0 0 1)
[...]
smoothSolver:  Solving for Uz, Initial residual = 5.965919931e-05, Final residual = 6.496128615e-14, No Iterations 2
diagonal:  Solving for rhoEv, Initial residual = 0, Final residual = 0, No Iterations 0
Calculating energy equation MHD term

max(nD_e-) [0 -3 0 0 0 0 0] 0
min(betaHall) [0 0 0 0 0 0 0] 0
Calculating D

min(D) [2 0 -4 0 0 -2 0] 0.00015925001
Hall tensor allocated

max(hallParameter) [0 0 0 0 0 0 0] (1 0 -0 -0 1 -0 0 0 1)
Returning current density with Hall correction

diagonal:  Solving for rhoE, Initial residual = 0, Final residual = 0, No Iterations 0
Q_mag is working. max(Q_mag) = Calculating energy equation MHD term

max(nD_e-) [0 -3 0 0 0 0 0] 0
min(betaHall) [0 0 0 0 0 0 0] 0
Calculating D

min(D) [2 0 -4 0 0 -2 0] 0.00015925001
Hall tensor allocated

max(hallParameter) [0 0 0 0 0 0 0] (1 0 -0 -0 1 -0 0 0 1)
Returning current density with Hall correction

max(Q) [1 -1 -3 0 0 0 0] 536663245.9
smoothSolver:  Solving for hevel, Initial residual = 8.097080094e-08, Final residual = 9.384984669e-17, No Iterations 2
Q_mag is working
smoothSolver:  Solving for e, Initial residual = 1.060130369e-07, Final residual = 4.231554679e-16, No Iterations 2
Phase no 1.0  ExecutionTime = 116399.54 s  ClockTime = 116546 s  Iteration no 100499 (1.09 s)

Mean and max Courant Numbers = 0.01680065281 0.2997660399
deltaT = 1.564945227e-08
Time = 0.002999890454

diagonal:  Solving for rho, Initial residual = 0, Final residual = 0, No Iterations 0
diagonal:  Solving for rhoUx, Initial residual = 0, Final residual = 0, No Iterations 0
diagonal:  Solving for rhoUy, Initial residual = 0, Final residual = 0, No Iterations 0
diagonal:  Solving for rhoUz, Initial residual = 0, Final residual = 0, No Iterations 0
Calculating momentum equation MHD term

max(nD_e-) [0 -3 0 0 0 0 0] 0
min(betaHall) [0 0 0 0 0 0 0] 0
Calculating D

min(D) [2 0 -4 0 0 -2 0] 0.00015925001
Hall tensor allocated

max(hallParameter) [0 0 0 0 0 0 0] (1 0 -0 -0 1 -0 0 0 1)
Returning current density with Hall correction

smoothSolver:  Solving for Ux, Initial residual = 2.262468396e-06, Final residual = 1.825418793e-15, No Iterations 2
smoothSolver:  Solving for Uy, Initial residual = 3.901299281e-06, Final residual = 2.864766278e-15, No Iterations 2
smoothSolver:  Solving for Uz, Initial residual = 5.965920073e-05, Final residual = 6.496087774e-14, No Iterations 2
diagonal:  Solving for rhoEv, Initial residual = 0, Final residual = 0, No Iterations 0
Calculating energy equation MHD term

max(nD_e-) [0 -3 0 0 0 0 0] 0
min(betaHall) [0 0 0 0 0 0 0] 0
Calculating D

min(D) [2 0 -4 0 0 -2 0] 0.00015925001
Hall tensor allocated

max(hallParameter) [0 0 0 0 0 0 0] (1 0 -0 -0 1 -0 0 0 1)
Returning current density with Hall correction

diagonal:  Solving for rhoE, Initial residual = 0, Final residual = 0, No Iterations 0
Q_mag is working. max(Q_mag) = Calculating energy equation MHD term

max(nD_e-) [0 -3 0 0 0 0 0] 0
min(betaHall) [0 0 0 0 0 0 0] 0
Calculating D

min(D) [2 0 -4 0 0 -2 0] 0.00015925001
Hall tensor allocated

max(hallParameter) [0 0 0 0 0 0 0] (1 0 -0 -0 1 -0 0 0 1)
Returning current density with Hall correction

max(Q) [1 -1 -3 0 0 0 0] 536663279.6
smoothSolver:  Solving for hevel, Initial residual = 8.097079325e-08, Final residual = 9.384749046e-17, No Iterations 2
Q_mag is working
smoothSolver:  Solving for e, Initial residual = 1.060130224e-07, Final residual = 4.23195153e-16, No Iterations 2
Phase no 1.0  ExecutionTime = 116400.63 s  ClockTime = 116547 s  Iteration no 100500 (1.09 s)

Mean and max Courant Numbers = 0.01680065273 0.2997660124
deltaT = 1.564945227e-08
Time = 0.002999906103

diagonal:  Solving for rho, Initial residual = 0, Final residual = 0, No Iterations 0
diagonal:  Solving for rhoUx, Initial residual = 0, Final residual = 0, No Iterations 0
diagonal:  Solving for rhoUy, Initial residual = 0, Final residual = 0, No Iterations 0
diagonal:  Solving for rhoUz, Initial residual = 0, Final residual = 0, No Iterations 0
Calculating momentum equation MHD term

max(nD_e-) [0 -3 0 0 0 0 0] 0
min(betaHall) [0 0 0 0 0 0 0] 0
Calculating D

min(D) [2 0 -4 0 0 -2 0] 0.00015925001
Hall tensor allocated

max(hallParameter) [0 0 0 0 0 0 0] (1 0 -0 -0 1 -0 0 0 1)
Returning current density with Hall correction

smoothSolver:  Solving for Ux, Initial residual = 2.262468249e-06, Final residual = 1.825869882e-15, No Iterations 2
smoothSolver:  Solving for Uy, Initial residual = 3.901299119e-06, Final residual = 2.864296679e-15, No Iterations 2
smoothSolver:  Solving for Uz, Initial residual = 5.965920216e-05, Final residual = 6.496086519e-14, No Iterations 2
diagonal:  Solving for rhoEv, Initial residual = 0, Final residual = 0, No Iterations 0
Calculating energy equation MHD term

max(nD_e-) [0 -3 0 0 0 0 0] 0
min(betaHall) [0 0 0 0 0 0 0] 0
Calculating D

min(D) [2 0 -4 0 0 -2 0] 0.00015925001
Hall tensor allocated

max(hallParameter) [0 0 0 0 0 0 0] (1 0 -0 -0 1 -0 0 0 1)
Returning current density with Hall correction

diagonal:  Solving for rhoE, Initial residual = 0, Final residual = 0, No Iterations 0
Q_mag is working. max(Q_mag) = Calculating energy equation MHD term

max(nD_e-) [0 -3 0 0 0 0 0] 0
min(betaHall) [0 0 0 0 0 0 0] 0
Calculating D

min(D) [2 0 -4 0 0 -2 0] 0.00015925001
Hall tensor allocated

max(hallParameter) [0 0 0 0 0 0 0] (1 0 -0 -0 1 -0 0 0 1)
Returning current density with Hall correction

max(Q) [1 -1 -3 0 0 0 0] 536663313.2
smoothSolver:  Solving for hevel, Initial residual = 8.097078556e-08, Final residual = 9.383680478e-17, No Iterations 2
Q_mag is working
smoothSolver:  Solving for e, Initial residual = 1.06013008e-07, Final residual = 4.231179835e-16, No Iterations 2
Phase no 1.0  ExecutionTime = 116401.73 s  ClockTime = 116548 s  Iteration no 100501 (1.1 s)

Mean and max Courant Numbers = 0.01680065266 0.2997659849
deltaT = 1.564945227e-08
Time = 0.002999921753

diagonal:  Solving for rho, Initial residual = 0, Final residual = 0, No Iterations 0
diagonal:  Solving for rhoUx, Initial residual = 0, Final residual = 0, No Iterations 0
diagonal:  Solving for rhoUy, Initial residual = 0, Final residual = 0, No Iterations 0
diagonal:  Solving for rhoUz, Initial residual = 0, Final residual = 0, No Iterations 0
Calculating momentum equation MHD term

max(nD_e-) [0 -3 0 0 0 0 0] 0
min(betaHall) [0 0 0 0 0 0 0] 0
Calculating D

min(D) [2 0 -4 0 0 -2 0] 0.00015925001
Hall tensor allocated

max(hallParameter) [0 0 0 0 0 0 0] (1 0 -0 -0 1 -0 0 0 1)
Returning current density with Hall correction

smoothSolver:  Solving for Ux, Initial residual = 2.262468102e-06, Final residual = 1.825468288e-15, No Iterations 2
smoothSolver:  Solving for Uy, Initial residual = 3.901298957e-06, Final residual = 2.864579557e-15, No Iterations 2
smoothSolver:  Solving for Uz, Initial residual = 5.965920358e-05, Final residual = 6.49611013e-14, No Iterations 2
diagonal:  Solving for rhoEv, Initial residual = 0, Final residual = 0, No Iterations 0
Calculating energy equation MHD term

max(nD_e-) [0 -3 0 0 0 0 0] 0
min(betaHall) [0 0 0 0 0 0 0] 0
Calculating D

min(D) [2 0 -4 0 0 -2 0] 0.00015925001
Hall tensor allocated

max(hallParameter) [0 0 0 0 0 0 0] (1 0 -0 -0 1 -0 0 0 1)
Returning current density with Hall correction

diagonal:  Solving for rhoE, Initial residual = 0, Final residual = 0, No Iterations 0
Q_mag is working. max(Q_mag) = Calculating energy equation MHD term

max(nD_e-) [0 -3 0 0 0 0 0] 0
min(betaHall) [0 0 0 0 0 0 0] 0
Calculating D

min(D) [2 0 -4 0 0 -2 0] 0.00015925001
Hall tensor allocated

max(hallParameter) [0 0 0 0 0 0 0] (1 0 -0 -0 1 -0 0 0 1)
Returning current density with Hall correction

max(Q) [1 -1 -3 0 0 0 0] 536663346.8
smoothSolver:  Solving for hevel, Initial residual = 8.097077787e-08, Final residual = 9.409808923e-17, No Iterations 2
Q_mag is working
smoothSolver:  Solving for e, Initial residual = 1.060129935e-07, Final residual = 4.231252788e-16, No Iterations 2
Phase no 1.0  ExecutionTime = 116402.81 s  ClockTime = 116549 s  Iteration no 100502 (1.08 s)

Mean and max Courant Numbers = 0.01680065258 0.2997659575
deltaT = 1.564945227e-08
Time = 0.002999937402

diagonal:  Solving for rho, Initial residual = 0, Final residual = 0, No Iterations 0
diagonal:  Solving for rhoUx, Initial residual = 0, Final residual = 0, No Iterations 0
diagonal:  Solving for rhoUy, Initial residual = 0, Final residual = 0, No Iterations 0
diagonal:  Solving for rhoUz, Initial residual = 0, Final residual = 0, No Iterations 0
Calculating momentum equation MHD term

max(nD_e-) [0 -3 0 0 0 0 0] 0
min(betaHall) [0 0 0 0 0 0 0] 0
Calculating D

min(D) [2 0 -4 0 0 -2 0] 0.00015925001
Hall tensor allocated

max(hallParameter) [0 0 0 0 0 0 0] (1 0 -0 -0 1 -0 0 0 1)
Returning current density with Hall correction

smoothSolver:  Solving for Ux, Initial residual = 2.262467955e-06, Final residual = 1.825755487e-15, No Iterations 2
smoothSolver:  Solving for Uy, Initial residual = 3.901298796e-06, Final residual = 2.864987999e-15, No Iterations 2
smoothSolver:  Solving for Uz, Initial residual = 5.9659205e-05, Final residual = 6.496085943e-14, No Iterations 2
diagonal:  Solving for rhoEv, Initial residual = 0, Final residual = 0, No Iterations 0
Calculating energy equation MHD term

max(nD_e-) [0 -3 0 0 0 0 0] 0
min(betaHall) [0 0 0 0 0 0 0] 0
Calculating D

min(D) [2 0 -4 0 0 -2 0] 0.00015925001
Hall tensor allocated

max(hallParameter) [0 0 0 0 0 0 0] (1 0 -0 -0 1 -0 0 0 1)
Returning current density with Hall correction

diagonal:  Solving for rhoE, Initial residual = 0, Final residual = 0, No Iterations 0
Q_mag is working. max(Q_mag) = Calculating energy equation MHD term

max(nD_e-) [0 -3 0 0 0 0 0] 0
min(betaHall) [0 0 0 0 0 0 0] 0
Calculating D

min(D) [2 0 -4 0 0 -2 0] 0.00015925001
Hall tensor allocated

max(hallParameter) [0 0 0 0 0 0 0] (1 0 -0 -0 1 -0 0 0 1)
Returning current density with Hall correction

max(Q) [1 -1 -3 0 0 0 0] 536663380.4
smoothSolver:  Solving for hevel, Initial residual = 8.097077019e-08, Final residual = 9.374910176e-17, No Iterations 2
Q_mag is working
smoothSolver:  Solving for e, Initial residual = 1.06012979e-07, Final residual = 4.233674096e-16, No Iterations 2
Phase no 1.0  ExecutionTime = 116403.91 s  ClockTime = 116550 s  Iteration no 100503 (1.1 s)

Mean and max Courant Numbers = 0.01680065251 0.29976593
deltaT = 1.564945227e-08
Time = 0.002999953052

diagonal:  Solving for rho, Initial residual = 0, Final residual = 0, No Iterations 0
diagonal:  Solving for rhoUx, Initial residual = 0, Final residual = 0, No Iterations 0
diagonal:  Solving for rhoUy, Initial residual = 0, Final residual = 0, No Iterations 0
diagonal:  Solving for rhoUz, Initial residual = 0, Final residual = 0, No Iterations 0
Calculating momentum equation MHD term

max(nD_e-) [0 -3 0 0 0 0 0] 0
min(betaHall) [0 0 0 0 0 0 0] 0
Calculating D

min(D) [2 0 -4 0 0 -2 0] 0.00015925001
Hall tensor allocated

max(hallParameter) [0 0 0 0 0 0 0] (1 0 -0 -0 1 -0 0 0 1)
Returning current density with Hall correction

smoothSolver:  Solving for Ux, Initial residual = 2.262467808e-06, Final residual = 1.825831651e-15, No Iterations 2
smoothSolver:  Solving for Uy, Initial residual = 3.901298634e-06, Final residual = 2.864741585e-15, No Iterations 2
smoothSolver:  Solving for Uz, Initial residual = 5.965920643e-05, Final residual = 6.496078562e-14, No Iterations 2
diagonal:  Solving for rhoEv, Initial residual = 0, Final residual = 0, No Iterations 0
Calculating energy equation MHD term

max(nD_e-) [0 -3 0 0 0 0 0] 0
min(betaHall) [0 0 0 0 0 0 0] 0
Calculating D

min(D) [2 0 -4 0 0 -2 0] 0.00015925001
Hall tensor allocated

max(hallParameter) [0 0 0 0 0 0 0] (1 0 -0 -0 1 -0 0 0 1)
Returning current density with Hall correction

diagonal:  Solving for rhoE, Initial residual = 0, Final residual = 0, No Iterations 0
Q_mag is working. max(Q_mag) = Calculating energy equation MHD term

max(nD_e-) [0 -3 0 0 0 0 0] 0
min(betaHall) [0 0 0 0 0 0 0] 0
Calculating D

min(D) [2 0 -4 0 0 -2 0] 0.00015925001
Hall tensor allocated

max(hallParameter) [0 0 0 0 0 0 0] (1 0 -0 -0 1 -0 0 0 1)
Returning current density with Hall correction

max(Q) [1 -1 -3 0 0 0 0] 536663414
smoothSolver:  Solving for hevel, Initial residual = 8.09707625e-08, Final residual = 9.374082117e-17, No Iterations 2
Q_mag is working
smoothSolver:  Solving for e, Initial residual = 1.060129646e-07, Final residual = 4.231663134e-16, No Iterations 2
Phase no 1.0  ExecutionTime = 116405 s  ClockTime = 116552 s  Iteration no 100504 (1.09 s)

Mean and max Courant Numbers = 0.01680065243 0.2997659026
deltaT = 1.564945227e-08
Time = 0.002999968701

diagonal:  Solving for rho, Initial residual = 0, Final residual = 0, No Iterations 0
diagonal:  Solving for rhoUx, Initial residual = 0, Final residual = 0, No Iterations 0
diagonal:  Solving for rhoUy, Initial residual = 0, Final residual = 0, No Iterations 0
diagonal:  Solving for rhoUz, Initial residual = 0, Final residual = 0, No Iterations 0
Calculating momentum equation MHD term

max(nD_e-) [0 -3 0 0 0 0 0] 0
min(betaHall) [0 0 0 0 0 0 0] 0
Calculating D

min(D) [2 0 -4 0 0 -2 0] 0.00015925001
Hall tensor allocated

max(hallParameter) [0 0 0 0 0 0 0] (1 0 -0 -0 1 -0 0 0 1)
Returning current density with Hall correction

smoothSolver:  Solving for Ux, Initial residual = 2.262467661e-06, Final residual = 1.825237944e-15, No Iterations 2
smoothSolver:  Solving for Uy, Initial residual = 3.901298472e-06, Final residual = 2.86522601e-15, No Iterations 2
smoothSolver:  Solving for Uz, Initial residual = 5.965920785e-05, Final residual = 6.496080944e-14, No Iterations 2
diagonal:  Solving for rhoEv, Initial residual = 0, Final residual = 0, No Iterations 0
Calculating energy equation MHD term

max(nD_e-) [0 -3 0 0 0 0 0] 0
min(betaHall) [0 0 0 0 0 0 0] 0
Calculating D

min(D) [2 0 -4 0 0 -2 0] 0.00015925001
Hall tensor allocated

max(hallParameter) [0 0 0 0 0 0 0] (1 0 -0 -0 1 -0 0 0 1)
Returning current density with Hall correction

diagonal:  Solving for rhoE, Initial residual = 0, Final residual = 0, No Iterations 0
Q_mag is working. max(Q_mag) = Calculating energy equation MHD term

max(nD_e-) [0 -3 0 0 0 0 0] 0
min(betaHall) [0 0 0 0 0 0 0] 0
Calculating D

min(D) [2 0 -4 0 0 -2 0] 0.00015925001
Hall tensor allocated

max(hallParameter) [0 0 0 0 0 0 0] (1 0 -0 -0 1 -0 0 0 1)
Returning current density with Hall correction

max(Q) [1 -1 -3 0 0 0 0] 536663447.6
smoothSolver:  Solving for hevel, Initial residual = 8.097075481e-08, Final residual = 9.409572339e-17, No Iterations 2
Q_mag is working
smoothSolver:  Solving for e, Initial residual = 1.060129501e-07, Final residual = 4.228952415e-16, No Iterations 2
Phase no 1.0  ExecutionTime = 116406.08 s  ClockTime = 116553 s  Iteration no 100505 (1.08 s)

Mean and max Courant Numbers = 0.01680065236 0.2997658751
deltaT = 1.564945227e-08
Time = 0.002999984351

diagonal:  Solving for rho, Initial residual = 0, Final residual = 0, No Iterations 0
diagonal:  Solving for rhoUx, Initial residual = 0, Final residual = 0, No Iterations 0
diagonal:  Solving for rhoUy, Initial residual = 0, Final residual = 0, No Iterations 0
diagonal:  Solving for rhoUz, Initial residual = 0, Final residual = 0, No Iterations 0
Calculating momentum equation MHD term

max(nD_e-) [0 -3 0 0 0 0 0] 0
min(betaHall) [0 0 0 0 0 0 0] 0
Calculating D

min(D) [2 0 -4 0 0 -2 0] 0.00015925001
Hall tensor allocated

max(hallParameter) [0 0 0 0 0 0 0] (1 0 -0 -0 1 -0 0 0 1)
Returning current density with Hall correction

smoothSolver:  Solving for Ux, Initial residual = 2.262467514e-06, Final residual = 1.82533261e-15, No Iterations 2
smoothSolver:  Solving for Uy, Initial residual = 3.90129831e-06, Final residual = 2.864274128e-15, No Iterations 2
smoothSolver:  Solving for Uz, Initial residual = 5.965920927e-05, Final residual = 6.496101679e-14, No Iterations 2
diagonal:  Solving for rhoEv, Initial residual = 0, Final residual = 0, No Iterations 0
Calculating energy equation MHD term

max(nD_e-) [0 -3 0 0 0 0 0] 0
min(betaHall) [0 0 0 0 0 0 0] 0
Calculating D

min(D) [2 0 -4 0 0 -2 0] 0.00015925001
Hall tensor allocated

max(hallParameter) [0 0 0 0 0 0 0] (1 0 -0 -0 1 -0 0 0 1)
Returning current density with Hall correction

diagonal:  Solving for rhoE, Initial residual = 0, Final residual = 0, No Iterations 0
Q_mag is working. max(Q_mag) = Calculating energy equation MHD term

max(nD_e-) [0 -3 0 0 0 0 0] 0
min(betaHall) [0 0 0 0 0 0 0] 0
Calculating D

min(D) [2 0 -4 0 0 -2 0] 0.00015925001
Hall tensor allocated

max(hallParameter) [0 0 0 0 0 0 0] (1 0 -0 -0 1 -0 0 0 1)
Returning current density with Hall correction

max(Q) [1 -1 -3 0 0 0 0] 536663481.2
smoothSolver:  Solving for hevel, Initial residual = 8.097074712e-08, Final residual = 9.404909496e-17, No Iterations 2
Q_mag is working
smoothSolver:  Solving for e, Initial residual = 1.060129356e-07, Final residual = 4.233541145e-16, No Iterations 2
Phase no 1.0  ExecutionTime = 116407.16 s  ClockTime = 116554 s  Iteration no 100506 (1.08 s)

Mean and max Courant Numbers = 0.01680065228 0.2997658476
deltaT = 1.564945227e-08
Time = 0.003

diagonal:  Solving for rho, Initial residual = 0, Final residual = 0, No Iterations 0
diagonal:  Solving for rhoUx, Initial residual = 0, Final residual = 0, No Iterations 0
diagonal:  Solving for rhoUy, Initial residual = 0, Final residual = 0, No Iterations 0
diagonal:  Solving for rhoUz, Initial residual = 0, Final residual = 0, No Iterations 0
Calculating momentum equation MHD term

max(nD_e-) [0 -3 0 0 0 0 0] 0
min(betaHall) [0 0 0 0 0 0 0] 0
Calculating D

min(D) [2 0 -4 0 0 -2 0] 0.00015925001
Hall tensor allocated

max(hallParameter) [0 0 0 0 0 0 0] (1 0 -0 -0 1 -0 0 0 1)
Returning current density with Hall correction

smoothSolver:  Solving for Ux, Initial residual = 2.262467367e-06, Final residual = 1.82581914e-15, No Iterations 2
smoothSolver:  Solving for Uy, Initial residual = 3.901298149e-06, Final residual = 2.86421556e-15, No Iterations 2
smoothSolver:  Solving for Uz, Initial residual = 5.965921069e-05, Final residual = 6.496106747e-14, No Iterations 2
diagonal:  Solving for rhoEv, Initial residual = 0, Final residual = 0, No Iterations 0
Calculating energy equation MHD term

max(nD_e-) [0 -3 0 0 0 0 0] 0
min(betaHall) [0 0 0 0 0 0 0] 0
Calculating D

min(D) [2 0 -4 0 0 -2 0] 0.00015925001
Hall tensor allocated

max(hallParameter) [0 0 0 0 0 0 0] (1 0 -0 -0 1 -0 0 0 1)
Returning current density with Hall correction

diagonal:  Solving for rhoE, Initial residual = 0, Final residual = 0, No Iterations 0
Q_mag is working. max(Q_mag) = Calculating energy equation MHD term

max(nD_e-) [0 -3 0 0 0 0 0] 0
min(betaHall) [0 0 0 0 0 0 0] 0
Calculating D

min(D) [2 0 -4 0 0 -2 0] 0.00015925001
Hall tensor allocated

max(hallParameter) [0 0 0 0 0 0 0] (1 0 -0 -0 1 -0 0 0 1)
Returning current density with Hall correction

max(Q) [1 -1 -3 0 0 0 0] 536663514.7
smoothSolver:  Solving for hevel, Initial residual = 8.097073944e-08, Final residual = 9.375780498e-17, No Iterations 2
Q_mag is working
smoothSolver:  Solving for e, Initial residual = 1.060129212e-07, Final residual = 4.230795971e-16, No Iterations 2
Calculating momentum equation MHD term

max(nD_e-) [0 -3 0 0 0 0 0] 0
min(betaHall) [0 0 0 0 0 0 0] 0
Calculating D

min(D) [2 0 -4 0 0 -2 0] 0.00015925001
Hall tensor allocated

max(hallParameter) [0 0 0 0 0 0 0] (1 0 -0 -0 1 -0 0 0 1)
Returning current density with Hall correction

Calculating energy equation MHD term

max(nD_e-) [0 -3 0 0 0 0 0] 0
min(betaHall) [0 0 0 0 0 0 0] 0
Calculating D

min(D) [2 0 -4 0 0 -2 0] 0.00015925001
Hall tensor allocated

max(hallParameter) [0 0 0 0 0 0 0] (1 0 -0 -0 1 -0 0 0 1)
Returning current density with Hall correction


Wall heat fluxes [W]
Patch 1 named object: 5.041357306e+15

Phase no 1.0  ExecutionTime = 116408.88 s  ClockTime = 116555 s  Iteration no 100507 (1.72 s)

Total no of Iterations 100507
End

Finalising parallel run
