/*---------------------------------------------------------------------------*\
| =========                 |                                                 |
| \\      /  F ield         | OpenFOAM: The Open Source CFD Toolbox           |
|  \\    /   O peration     | Version:  v1706                                 |
|   \\  /    A nd           | Web:      www.OpenFOAM.com                      |
|    \\/     M anipulation  |                                                 |
\*---------------------------------------------------------------------------*/
Build  : v1706
Arch   : "LSB;label=32;scalar=64"
Exec   : dsmcFoam+
Date   : Jan 11 2019
Time   : 10:29:41
Host   : "Galileo"
PID    : 31977
Case   : /home/vincent/OpenFOAM/vincent-v1706/hyStrath/run/hyStrath/dsmcFoam+/gasSurfaceInteraction/stickingPatch
nProcs : 1
sigFpe : Enabling floating point exception trapping (FOAM_SIGFPE).
fileModificationChecking : Monitoring run-time modified files using timeStampMaster (fileModificationSkew 10)
allowSystemOperations : Allowing user-supplied system call operations

// * * * * * * * * * * * * * * * * * * * * * * * * * * * * * * * * * * * * * //
Create time

Create mesh for time = 0

Selecting dynamicFvMesh dynamicRefineFvMesh

Constructing dsmcCloud 
Selecting the coordinate system model:	dsmcCartesian

Selecting the time-step model:	dsmcConstantTimeStepModel

Constant time-step model:
- time-step [sec]	1e-09

Selecting the porous measurement model:	dsmcNoPorousMediumMeasurements


Creating dsmcControllers

Creating fields: 

Selecting field: dsmcVolFields

TimeData Statistics: 
 measurement option: write
 nSamples: 1, time interval: 1e-09
 nAverages: 1000, time interval: 1e-06
 total no. of sampling steps: 1000
 total no. of averaging Steps: 1


Creating the boundary models: 

Selecting dsmcPatchBoundaryModel dsmcSpecularWallPatch
Selecting dsmcPatchBoundaryModel dsmcStickingDiffuseWallPatch
Selecting BinaryCollisionModel VariableHardSphere

Creating dsmcReactions

WARNING: there are no reactions.

Constructing constant properties for
	Ar
pair addressing: 1(1(-1))
Selecting collisionPartnerSelectionModel noTimeCounter

Initialising the measurement fields

Initialising dsmcVolFields field

Starting time loop

Time = 1e-09

    Collisions                      = 2

    Number of DSMC particles        = 10000
    Number of stuck particles       = 125
    Number of free particles        = 9875
    Average linear kinetic energy   = 4.133595765e-20
    Average rotational energy       = 0
    Average vibrational energy      = 0
    Average electronic energy       = 0
    Total energy                    = 4.081925818e-14

Stage 1.0  ExecutionTime = 0.06 s  ClockTime = 0 s  Iteration 1 (0.06 s)

Time = 2e-09

    Collisions                      = 3

    Number of DSMC particles        = 10000
    Number of stuck particles       = 252
    Number of free particles        = 9748
    Average linear kinetic energy   = 4.111190329e-20
    Average rotational energy       = 0
    Average vibrational energy      = 0
    Average electronic energy       = 0
    Total energy                    = 4.007588333e-14

Stage 1.0  ExecutionTime = 0.06 s  ClockTime = 0 s  Iteration 2 (0.001 s)

Time = 3e-09

    Collisions                      = 2

    Number of DSMC particles        = 10000
    Number of stuck particles       = 376
    Number of free particles        = 9624
    Average linear kinetic energy   = 4.08899001e-20
    Average rotational energy       = 0
    Average vibrational energy      = 0
    Average electronic energy       = 0
    Total energy                    = 3.935243986e-14

Stage 1.0  ExecutionTime = 0.07 s  ClockTime = 0 s  Iteration 3 (0.01 s)

Time = 4e-09

    Collisions                      = 2

    Number of DSMC particles        = 10000
    Number of stuck particles       = 492
    Number of free particles        = 9508
    Average linear kinetic energy   = 4.068957238e-20
    Average rotational energy       = 0
    Average vibrational energy      = 0
    Average electronic energy       = 0
    Total energy                    = 3.868764542e-14

Stage 1.0  ExecutionTime = 0.07 s  ClockTime = 0 s  Iteration 4 (0.001 s)

Time = 5e-09

    Collisions                      = 2

    Number of DSMC particles        = 10000
    Number of stuck particles       = 603
    Number of free particles        = 9397
    Average linear kinetic energy   = 4.054300183e-20
    Average rotational energy       = 0
    Average vibrational energy      = 0
    Average electronic energy       = 0
    Total energy                    = 3.809825882e-14

Stage 1.0  ExecutionTime = 0.08 s  ClockTime = 0 s  Iteration 5 (0.01 s)

Time = 6e-09

    Collisions                      = 3

    Number of DSMC particles        = 10000
    Number of stuck particles       = 706
    Number of free particles        = 9294
    Average linear kinetic energy   = 4.033361551e-20
    Average rotational energy       = 0
    Average vibrational energy      = 0
    Average electronic energy       = 0
    Total energy                    = 3.748606226e-14

Stage 1.0  ExecutionTime = 0.08 s  ClockTime = 0 s  Iteration 6 (0.001 s)

Time = 7e-09

    Collisions                      = 2

    Number of DSMC particles        = 10000
    Number of stuck particles       = 816
    Number of free particles        = 9184
    Average linear kinetic energy   = 4.003997501e-20
    Average rotational energy       = 0
    Average vibrational energy      = 0
    Average electronic energy       = 0
    Total energy                    = 3.677271305e-14

Stage 1.0  ExecutionTime = 0.09 s  ClockTime = 0 s  Iteration 7 (0.01 s)

Time = 8e-09

    Collisions                      = 1

    Number of DSMC particles        = 10000
    Number of stuck particles       = 936
    Number of free particles        = 9064
    Average linear kinetic energy   = 3.986289496e-20
    Average rotational energy       = 0
    Average vibrational energy      = 0
    Average electronic energy       = 0
    Total energy                    = 3.613172799e-14

Stage 1.0  ExecutionTime = 0.09 s  ClockTime = 0 s  Iteration 8 (0.001 s)

Time = 9e-09

    Collisions                      = 2

    Number of DSMC particles        = 10000
    Number of stuck particles       = 1051
    Number of free particles        = 8949
    Average linear kinetic energy   = 3.962429365e-20
    Average rotational energy       = 0
    Average vibrational energy      = 0
    Average electronic energy       = 0
    Total energy                    = 3.545978039e-14

Stage 1.0  ExecutionTime = 0.1 s  ClockTime = 0 s  Iteration 9 (0.01 s)

Time = 1e-08

    Collisions                      = 1

    Number of DSMC particles        = 10000
    Number of stuck particles       = 1147
    Number of free particles        = 8853
    Average linear kinetic energy   = 3.94609504e-20
    Average rotational energy       = 0
    Average vibrational energy      = 0
    Average electronic energy       = 0
    Total energy                    = 3.493477939e-14

Stage 1.0  ExecutionTime = 0.1 s  ClockTime = 0 s  Iteration 10 (0.001 s)

Time = 1.1e-08

    Collisions                      = 2

    Number of DSMC particles        = 10000
    Number of stuck particles       = 1244
    Number of free particles        = 8756
    Average linear kinetic energy   = 3.937598519e-20
    Average rotational energy       = 0
    Average vibrational energy      = 0
    Average electronic energy       = 0
    Total energy                    = 3.447761264e-14

Stage 1.0  ExecutionTime = 0.11 s  ClockTime = 0 s  Iteration 11 (0.01 s)

Time = 1.2e-08

    Collisions                      = 2

    Number of DSMC particles        = 10000
    Number of stuck particles       = 1347
    Number of free particles        = 8653
    Average linear kinetic energy   = 3.918415723e-20
    Average rotational energy       = 0
    Average vibrational energy      = 0
    Average electronic energy       = 0
    Total energy                    = 3.390605125e-14

Stage 1.0  ExecutionTime = 0.11 s  ClockTime = 0 s  Iteration 12 (0.001 s)

Time = 1.3e-08

    Collisions                      = 3

    Number of DSMC particles        = 10000
    Number of stuck particles       = 1447
    Number of free particles        = 8553
    Average linear kinetic energy   = 3.920602506e-20
    Average rotational energy       = 0
    Average vibrational energy      = 0
    Average electronic energy       = 0
    Total energy                    = 3.353291323e-14

Stage 1.0  ExecutionTime = 0.12 s  ClockTime = 0 s  Iteration 13 (0.01 s)

Time = 1.4e-08

    Collisions                      = 2

    Number of DSMC particles        = 10000
    Number of stuck particles       = 1551
    Number of free particles        = 8449
    Average linear kinetic energy   = 3.899863308e-20
    Average rotational energy       = 0
    Average vibrational energy      = 0
    Average electronic energy       = 0
    Total energy                    = 3.294994509e-14

Stage 1.0  ExecutionTime = 0.13 s  ClockTime = 0 s  Iteration 14 (0.01 s)

Time = 1.5e-08

    Collisions                      = 1

    Number of DSMC particles        = 10000
    Number of stuck particles       = 1645
    Number of free particles        = 8355
    Average linear kinetic energy   = 3.895872353e-20
    Average rotational energy       = 0
    Average vibrational energy      = 0
    Average electronic energy       = 0
    Total energy                    = 3.255001351e-14

Stage 1.0  ExecutionTime = 0.13 s  ClockTime = 0 s  Iteration 15 (0.001 s)

Time = 1.6e-08

    Collisions                      = 2

    Number of DSMC particles        = 10000
    Number of stuck particles       = 1729
    Number of free particles        = 8271
    Average linear kinetic energy   = 3.901904377e-20
    Average rotational energy       = 0
    Average vibrational energy      = 0
    Average electronic energy       = 0
    Total energy                    = 3.22726511e-14

Stage 1.0  ExecutionTime = 0.13 s  ClockTime = 0 s  Iteration 16 (0.001 s)

Time = 1.7e-08

    Collisions                      = 2

    Number of DSMC particles        = 10000
    Number of stuck particles       = 1818
    Number of free particles        = 8182
    Average linear kinetic energy   = 3.899587759e-20
    Average rotational energy       = 0
    Average vibrational energy      = 0
    Average electronic energy       = 0
    Total energy                    = 3.190642704e-14

Stage 1.0  ExecutionTime = 0.14 s  ClockTime = 0 s  Iteration 17 (0.001 s)

Time = 1.8e-08

    Collisions                      = 2

    Number of DSMC particles        = 10000
    Number of stuck particles       = 1904
    Number of free particles        = 8096
    Average linear kinetic energy   = 3.899184372e-20
    Average rotational energy       = 0
    Average vibrational energy      = 0
    Average electronic energy       = 0
    Total energy                    = 3.156779668e-14

Stage 1.0  ExecutionTime = 0.14 s  ClockTime = 0 s  Iteration 18 (0.001 s)

Time = 1.9e-08

    Collisions                      = 1

    Number of DSMC particles        = 10000
    Number of stuck particles       = 1987
    Number of free particles        = 8013
    Average linear kinetic energy   = 3.892365108e-20
    Average rotational energy       = 0
    Average vibrational energy      = 0
    Average electronic energy       = 0
    Total energy                    = 3.118952161e-14

Stage 1.0  ExecutionTime = 0.15 s  ClockTime = 0 s  Iteration 19 (0.01 s)

Time = 2e-08

    Collisions                      = 0

    Number of DSMC particles        = 10000
    Number of stuck particles       = 1999
    Number of free particles        = 8001
    Average linear kinetic energy   = 3.900371415e-20
    Average rotational energy       = 0
    Average vibrational energy      = 0
    Average electronic energy       = 0
    Total energy                    = 3.120687169e-14

Stage 1.0  ExecutionTime = 0.15 s  ClockTime = 0 s  Iteration 20 (0.001 s)

Time = 2.1e-08

    Collisions                      = 2

    Number of DSMC particles        = 10000
    Number of stuck particles       = 2000
    Number of free particles        = 8000
    Average linear kinetic energy   = 3.902746796e-20
    Average rotational energy       = 0
    Average vibrational energy      = 0
    Average electronic energy       = 0
    Total energy                    = 3.122197437e-14

Stage 1.0  ExecutionTime = 0.16 s  ClockTime = 0 s  Iteration 21 (0.01 s)

Time = 2.2e-08

    Collisions                      = 3

    Number of DSMC particles        = 10000
    Number of stuck particles       = 2000
    Number of free particles        = 8000
    Average linear kinetic energy   = 3.926819701e-20
    Average rotational energy       = 0
    Average vibrational energy      = 0
    Average electronic energy       = 0
    Total energy                    = 3.141455761e-14

Stage 1.0  ExecutionTime = 0.16 s  ClockTime = 0 s  Iteration 22 (0.001 s)

Time = 2.3e-08

    Collisions                      = 2

    Number of DSMC particles        = 10000
    Number of stuck particles       = 2000
    Number of free particles        = 8000
    Average linear kinetic energy   = 3.94760067e-20
    Average rotational energy       = 0
    Average vibrational energy      = 0
    Average electronic energy       = 0
    Total energy                    = 3.158080536e-14

Stage 1.0  ExecutionTime = 0.17 s  ClockTime = 0 s  Iteration 23 (0.01 s)

Time = 2.4e-08

    Collisions                      = 2

    Number of DSMC particles        = 10000
    Number of stuck particles       = 2000
    Number of free particles        = 8000
    Average linear kinetic energy   = 3.956223676e-20
    Average rotational energy       = 0
    Average vibrational energy      = 0
    Average electronic energy       = 0
    Total energy                    = 3.164978941e-14

Stage 1.0  ExecutionTime = 0.17 s  ClockTime = 0 s  Iteration 24 (0.001 s)

Time = 2.5e-08

    Collisions                      = 3

    Number of DSMC particles        = 10000
    Number of stuck particles       = 1997
    Number of free particles        = 8003
    Average linear kinetic energy   = 3.969911881e-20
    Average rotational energy       = 0
    Average vibrational energy      = 0
    Average electronic energy       = 0
    Total energy                    = 3.177120479e-14

Stage 1.0  ExecutionTime = 0.18 s  ClockTime = 0 s  Iteration 25 (0.01 s)

Time = 2.6e-08

    Collisions                      = 1

    Number of DSMC particles        = 10000
    Number of stuck particles       = 1998
    Number of free particles        = 8002
    Average linear kinetic energy   = 3.979095915e-20
    Average rotational energy       = 0
    Average vibrational energy      = 0
    Average electronic energy       = 0
    Total energy                    = 3.184072551e-14

Stage 1.0  ExecutionTime = 0.18 s  ClockTime = 0 s  Iteration 26 (0.001 s)

Time = 2.7e-08

    Collisions                      = 1

    Number of DSMC particles        = 10000
    Number of stuck particles       = 1999
    Number of free particles        = 8001
    Average linear kinetic energy   = 3.985790735e-20
    Average rotational energy       = 0
    Average vibrational energy      = 0
    Average electronic energy       = 0
    Total energy                    = 3.189031167e-14

Stage 1.0  ExecutionTime = 0.19 s  ClockTime = 0 s  Iteration 27 (0.01 s)

Time = 2.8e-08

    Collisions                      = 3

    Number of DSMC particles        = 10000
    Number of stuck particles       = 1999
    Number of free particles        = 8001
    Average linear kinetic energy   = 4.008167749e-20
    Average rotational energy       = 0
    Average vibrational energy      = 0
    Average electronic energy       = 0
    Total energy                    = 3.206935016e-14

Stage 1.0  ExecutionTime = 0.19 s  ClockTime = 0 s  Iteration 28 (0.001 s)

Time = 2.9e-08

    Collisions                      = 2

    Number of DSMC particles        = 10000
    Number of stuck particles       = 1999
    Number of free particles        = 8001
    Average linear kinetic energy   = 3.991968316e-20
    Average rotational energy       = 0
    Average vibrational energy      = 0
    Average electronic energy       = 0
    Total energy                    = 3.19397385e-14

Stage 1.0  ExecutionTime = 0.19 s  ClockTime = 1 s  Iteration 29 (0.001 s)

Time = 3e-08

    Collisions                      = 3

    Number of DSMC particles        = 10000
    Number of stuck particles       = 2000
    Number of free particles        = 8000
    Average linear kinetic energy   = 4.007684887e-20
    Average rotational energy       = 0
    Average vibrational energy      = 0
    Average electronic energy       = 0
    Total energy                    = 3.20614791e-14

Stage 1.0  ExecutionTime = 0.2 s  ClockTime = 1 s  Iteration 30 (0.01 s)

Time = 3.1e-08

    Collisions                      = 3

    Number of DSMC particles        = 10000
    Number of stuck particles       = 2000
    Number of free particles        = 8000
    Average linear kinetic energy   = 3.99608491e-20
    Average rotational energy       = 0
    Average vibrational energy      = 0
    Average electronic energy       = 0
    Total energy                    = 3.196867928e-14

Stage 1.0  ExecutionTime = 0.2 s  ClockTime = 1 s  Iteration 31 (0.001 s)

Time = 3.2e-08

    Collisions                      = 1

    Number of DSMC particles        = 10000
    Number of stuck particles       = 1997
    Number of free particles        = 8003
    Average linear kinetic energy   = 4.00951111e-20
    Average rotational energy       = 0
    Average vibrational energy      = 0
    Average electronic energy       = 0
    Total energy                    = 3.208811741e-14

Stage 1.0  ExecutionTime = 0.21 s  ClockTime = 1 s  Iteration 32 (0.01 s)

Time = 3.3e-08

    Collisions                      = 2

    Number of DSMC particles        = 10000
    Number of stuck particles       = 2000
    Number of free particles        = 8000
    Average linear kinetic energy   = 4.022388295e-20
    Average rotational energy       = 0
    Average vibrational energy      = 0
    Average electronic energy       = 0
    Total energy                    = 3.217910636e-14

Stage 1.0  ExecutionTime = 0.21 s  ClockTime = 1 s  Iteration 33 (0.001 s)

Time = 3.4e-08

    Collisions                      = 2

    Number of DSMC particles        = 10000
    Number of stuck particles       = 2000
    Number of free particles        = 8000
    Average linear kinetic energy   = 4.021081583e-20
    Average rotational energy       = 0
    Average vibrational energy      = 0
    Average electronic energy       = 0
    Total energy                    = 3.216865266e-14

Stage 1.0  ExecutionTime = 0.22 s  ClockTime = 1 s  Iteration 34 (0.01 s)

Time = 3.5e-08

    Collisions                      = 1

    Number of DSMC particles        = 10000
    Number of stuck particles       = 2000
    Number of free particles        = 8000
    Average linear kinetic energy   = 4.014147875e-20
    Average rotational energy       = 0
    Average vibrational energy      = 0
    Average electronic energy       = 0
    Total energy                    = 3.2113183e-14

Stage 1.0  ExecutionTime = 0.22 s  ClockTime = 1 s  Iteration 35 (0.001 s)

Time = 3.6e-08

    Collisions                      = 3

    Number of DSMC particles        = 10000
    Number of stuck particles       = 2000
    Number of free particles        = 8000
    Average linear kinetic energy   = 3.996881391e-20
    Average rotational energy       = 0
    Average vibrational energy      = 0
    Average electronic energy       = 0
    Total energy                    = 3.197505113e-14

Stage 1.0  ExecutionTime = 0.23 s  ClockTime = 1 s  Iteration 36 (0.01 s)

Time = 3.7e-08

    Collisions                      = 3

    Number of DSMC particles        = 10000
    Number of stuck particles       = 1997
    Number of free particles        = 8003
    Average linear kinetic energy   = 4.004599546e-20
    Average rotational energy       = 0
    Average vibrational energy      = 0
    Average electronic energy       = 0
    Total energy                    = 3.204881017e-14

Stage 1.0  ExecutionTime = 0.23 s  ClockTime = 1 s  Iteration 37 (0.001 s)

Time = 3.8e-08

    Collisions                      = 2

    Number of DSMC particles        = 10000
    Number of stuck particles       = 1998
    Number of free particles        = 8002
    Average linear kinetic energy   = 4.001948449e-20
    Average rotational energy       = 0
    Average vibrational energy      = 0
    Average electronic energy       = 0
    Total energy                    = 3.202359149e-14

Stage 1.0  ExecutionTime = 0.24 s  ClockTime = 1 s  Iteration 38 (0.01 s)

Time = 3.9e-08

    Collisions                      = 0

    Number of DSMC particles        = 10000
    Number of stuck particles       = 2000
    Number of free particles        = 8000
    Average linear kinetic energy   = 4.012276127e-20
    Average rotational energy       = 0
    Average vibrational energy      = 0
    Average electronic energy       = 0
    Total energy                    = 3.209820901e-14

Stage 1.0  ExecutionTime = 0.24 s  ClockTime = 1 s  Iteration 39 (0.001 s)

Time = 4e-08

    Collisions                      = 1

    Number of DSMC particles        = 10000
    Number of stuck particles       = 1997
    Number of free particles        = 8003
    Average linear kinetic energy   = 4.026033696e-20
    Average rotational energy       = 0
    Average vibrational energy      = 0
    Average electronic energy       = 0
    Total energy                    = 3.222034767e-14

Stage 1.0  ExecutionTime = 0.25 s  ClockTime = 1 s  Iteration 40 (0.01 s)

Time = 4.1e-08

    Collisions                      = 2

    Number of DSMC particles        = 10000
    Number of stuck particles       = 2000
    Number of free particles        = 8000
    Average linear kinetic energy   = 4.042854923e-20
    Average rotational energy       = 0
    Average vibrational energy      = 0
    Average electronic energy       = 0
    Total energy                    = 3.234283938e-14

Stage 1.0  ExecutionTime = 0.25 s  ClockTime = 1 s  Iteration 41 (0.001 s)

Time = 4.2e-08

    Collisions                      = 2

    Number of DSMC particles        = 10000
    Number of stuck particles       = 1998
    Number of free particles        = 8002
    Average linear kinetic energy   = 4.050962767e-20
    Average rotational energy       = 0
    Average vibrational energy      = 0
    Average electronic energy       = 0
    Total energy                    = 3.241580406e-14

Stage 1.0  ExecutionTime = 0.26 s  ClockTime = 1 s  Iteration 42 (0.01 s)

Time = 4.3e-08

    Collisions                      = 3

    Number of DSMC particles        = 10000
    Number of stuck particles       = 2000
    Number of free particles        = 8000
    Average linear kinetic energy   = 4.043048732e-20
    Average rotational energy       = 0
    Average vibrational energy      = 0
    Average electronic energy       = 0
    Total energy                    = 3.234438986e-14

Stage 1.0  ExecutionTime = 0.26 s  ClockTime = 1 s  Iteration 43 (0.001 s)

Time = 4.4e-08

    Collisions                      = 1

    Number of DSMC particles        = 10000
    Number of stuck particles       = 2000
    Number of free particles        = 8000
    Average linear kinetic energy   = 4.044700617e-20
    Average rotational energy       = 0
    Average vibrational energy      = 0
    Average electronic energy       = 0
    Total energy                    = 3.235760494e-14

Stage 1.0  ExecutionTime = 0.27 s  ClockTime = 1 s  Iteration 44 (0.01 s)

Time = 4.5e-08

    Collisions                      = 3

    Number of DSMC particles        = 10000
    Number of stuck particles       = 2000
    Number of free particles        = 8000
    Average linear kinetic energy   = 4.060974805e-20
    Average rotational energy       = 0
    Average vibrational energy      = 0
    Average electronic energy       = 0
    Total energy                    = 3.248779844e-14

Stage 1.0  ExecutionTime = 0.27 s  ClockTime = 1 s  Iteration 45 (0.001 s)

Time = 4.6e-08

    Collisions                      = 2

    Number of DSMC particles        = 10000
    Number of stuck particles       = 2000
    Number of free particles        = 8000
    Average linear kinetic energy   = 4.053125927e-20
    Average rotational energy       = 0
    Average vibrational energy      = 0
    Average electronic energy       = 0
    Total energy                    = 3.242500742e-14

Stage 1.0  ExecutionTime = 0.28 s  ClockTime = 1 s  Iteration 46 (0.01 s)

Time = 4.7e-08

    Collisions                      = 3

    Number of DSMC particles        = 10000
    Number of stuck particles       = 2000
    Number of free particles        = 8000
    Average linear kinetic energy   = 4.035639574e-20
    Average rotational energy       = 0
    Average vibrational energy      = 0
    Average electronic energy       = 0
    Total energy                    = 3.228511659e-14

Stage 1.0  ExecutionTime = 0.28 s  ClockTime = 1 s  Iteration 47 (0.001 s)

Time = 4.8e-08

    Collisions                      = 0

    Number of DSMC particles        = 10000
    Number of stuck particles       = 1999
    Number of free particles        = 8001
    Average linear kinetic energy   = 4.022086747e-20
    Average rotational energy       = 0
    Average vibrational energy      = 0
    Average electronic energy       = 0
    Total energy                    = 3.218071606e-14

Stage 1.0  ExecutionTime = 0.29 s  ClockTime = 1 s  Iteration 48 (0.01 s)

Time = 4.9e-08

    Collisions                      = 2

    Number of DSMC particles        = 10000
    Number of stuck particles       = 2000
    Number of free particles        = 8000
    Average linear kinetic energy   = 4.019049719e-20
    Average rotational energy       = 0
    Average vibrational energy      = 0
    Average electronic energy       = 0
    Total energy                    = 3.215239775e-14

Stage 1.0  ExecutionTime = 0.29 s  ClockTime = 1 s  Iteration 49 (0.001 s)

Time = 5e-08

    Collisions                      = 2

    Number of DSMC particles        = 10000
    Number of stuck particles       = 2000
    Number of free particles        = 8000
    Average linear kinetic energy   = 4.015974169e-20
    Average rotational energy       = 0
    Average vibrational energy      = 0
    Average electronic energy       = 0
    Total energy                    = 3.212779335e-14

Stage 1.0  ExecutionTime = 0.3 s  ClockTime = 1 s  Iteration 50 (0.01 s)

Time = 5.1e-08

    Collisions                      = 1

    Number of DSMC particles        = 10000
    Number of stuck particles       = 2000
    Number of free particles        = 8000
    Average linear kinetic energy   = 4.017973574e-20
    Average rotational energy       = 0
    Average vibrational energy      = 0
    Average electronic energy       = 0
    Total energy                    = 3.214378859e-14

Stage 1.0  ExecutionTime = 0.3 s  ClockTime = 1 s  Iteration 51 (0.001 s)

Time = 5.2e-08

    Collisions                      = 2

    Number of DSMC particles        = 10000
    Number of stuck particles       = 1999
    Number of free particles        = 8001
    Average linear kinetic energy   = 4.012689059e-20
    Average rotational energy       = 0
    Average vibrational energy      = 0
    Average electronic energy       = 0
    Total energy                    = 3.210552516e-14

Stage 1.0  ExecutionTime = 0.31 s  ClockTime = 1 s  Iteration 52 (0.01 s)

Time = 5.3e-08

    Collisions                      = 1

    Number of DSMC particles        = 10000
    Number of stuck particles       = 2000
    Number of free particles        = 8000
    Average linear kinetic energy   = 4.003992577e-20
    Average rotational energy       = 0
    Average vibrational energy      = 0
    Average electronic energy       = 0
    Total energy                    = 3.203194062e-14

Stage 1.0  ExecutionTime = 0.31 s  ClockTime = 1 s  Iteration 53 (0.001 s)

Time = 5.4e-08

    Collisions                      = 3

    Number of DSMC particles        = 10000
    Number of stuck particles       = 2000
    Number of free particles        = 8000
    Average linear kinetic energy   = 4.001970308e-20
    Average rotational energy       = 0
    Average vibrational energy      = 0
    Average electronic energy       = 0
    Total energy                    = 3.201576247e-14

Stage 1.0  ExecutionTime = 0.32 s  ClockTime = 1 s  Iteration 54 (0.01 s)

Time = 5.5e-08

    Collisions                      = 2

    Number of DSMC particles        = 10000
    Number of stuck particles       = 2000
    Number of free particles        = 8000
    Average linear kinetic energy   = 4.009178064e-20
    Average rotational energy       = 0
    Average vibrational energy      = 0
    Average electronic energy       = 0
    Total energy                    = 3.207342451e-14

Stage 1.0  ExecutionTime = 0.32 s  ClockTime = 1 s  Iteration 55 (0.001 s)

Time = 5.6e-08

    Collisions                      = 2

    Number of DSMC particles        = 10000
    Number of stuck particles       = 1999
    Number of free particles        = 8001
    Average linear kinetic energy   = 3.989805973e-20
    Average rotational energy       = 0
    Average vibrational energy      = 0
    Average electronic energy       = 0
    Total energy                    = 3.192243759e-14

Stage 1.0  ExecutionTime = 0.32 s  ClockTime = 1 s  Iteration 56 (0.001 s)

Time = 5.7e-08

    Collisions                      = 3

    Number of DSMC particles        = 10000
    Number of stuck particles       = 2000
    Number of free particles        = 8000
    Average linear kinetic energy   = 3.985392106e-20
    Average rotational energy       = 0
    Average vibrational energy      = 0
    Average electronic energy       = 0
    Total energy                    = 3.188313685e-14

Stage 1.0  ExecutionTime = 0.33 s  ClockTime = 1 s  Iteration 57 (0.01 s)

Time = 5.8e-08

    Collisions                      = 2

    Number of DSMC particles        = 10000
    Number of stuck particles       = 1999
    Number of free particles        = 8001
    Average linear kinetic energy   = 3.981318348e-20
    Average rotational energy       = 0
    Average vibrational energy      = 0
    Average electronic energy       = 0
    Total energy                    = 3.18545281e-14

Stage 1.0  ExecutionTime = 0.34 s  ClockTime = 1 s  Iteration 58 (0.01 s)

Time = 5.9e-08

    Collisions                      = 2

    Number of DSMC particles        = 10000
    Number of stuck particles       = 1999
    Number of free particles        = 8001
    Average linear kinetic energy   = 3.979683174e-20
    Average rotational energy       = 0
    Average vibrational energy      = 0
    Average electronic energy       = 0
    Total energy                    = 3.184144508e-14

Stage 1.0  ExecutionTime = 0.34 s  ClockTime = 1 s  Iteration 59 (0.001 s)

Time = 6e-08

    Collisions                      = 2

    Number of DSMC particles        = 10000
    Number of stuck particles       = 2000
    Number of free particles        = 8000
    Average linear kinetic energy   = 3.999863269e-20
    Average rotational energy       = 0
    Average vibrational energy      = 0
    Average electronic energy       = 0
    Total energy                    = 3.199890615e-14

Stage 1.0  ExecutionTime = 0.35 s  ClockTime = 1 s  Iteration 60 (0.01 s)

Time = 6.1e-08

    Collisions                      = 3

    Number of DSMC particles        = 10000
    Number of stuck particles       = 2000
    Number of free particles        = 8000
    Average linear kinetic energy   = 4.006478227e-20
    Average rotational energy       = 0
    Average vibrational energy      = 0
    Average electronic energy       = 0
    Total energy                    = 3.205182582e-14

Stage 1.0  ExecutionTime = 0.35 s  ClockTime = 1 s  Iteration 61 (0.001 s)

Time = 6.2e-08

    Collisions                      = 1

    Number of DSMC particles        = 10000
    Number of stuck particles       = 1997
    Number of free particles        = 8003
    Average linear kinetic energy   = 4.00226874e-20
    Average rotational energy       = 0
    Average vibrational energy      = 0
    Average electronic energy       = 0
    Total energy                    = 3.203015673e-14

Stage 1.0  ExecutionTime = 0.36 s  ClockTime = 1 s  Iteration 62 (0.01 s)

Time = 6.3e-08

    Collisions                      = 0

    Number of DSMC particles        = 10000
    Number of stuck particles       = 1998
    Number of free particles        = 8002
    Average linear kinetic energy   = 4.008511755e-20
    Average rotational energy       = 0
    Average vibrational energy      = 0
    Average electronic energy       = 0
    Total energy                    = 3.207611106e-14

Stage 1.0  ExecutionTime = 0.36 s  ClockTime = 1 s  Iteration 63 (0.001 s)

Time = 6.4e-08

    Collisions                      = 1

    Number of DSMC particles        = 10000
    Number of stuck particles       = 1999
    Number of free particles        = 8001
    Average linear kinetic energy   = 4.008539359e-20
    Average rotational energy       = 0
    Average vibrational energy      = 0
    Average electronic energy       = 0
    Total energy                    = 3.207232342e-14

Stage 1.0  ExecutionTime = 0.37 s  ClockTime = 1 s  Iteration 64 (0.01 s)

Time = 6.5e-08

    Collisions                      = 2

    Number of DSMC particles        = 10000
    Number of stuck particles       = 2000
    Number of free particles        = 8000
    Average linear kinetic energy   = 4.008552847e-20
    Average rotational energy       = 0
    Average vibrational energy      = 0
    Average electronic energy       = 0
    Total energy                    = 3.206842278e-14

Stage 1.0  ExecutionTime = 0.37 s  ClockTime = 1 s  Iteration 65 (0.001 s)

Time = 6.6e-08

    Collisions                      = 1

    Number of DSMC particles        = 10000
    Number of stuck particles       = 2000
    Number of free particles        = 8000
    Average linear kinetic energy   = 4.002668554e-20
    Average rotational energy       = 0
    Average vibrational energy      = 0
    Average electronic energy       = 0
    Total energy                    = 3.202134843e-14

Stage 1.0  ExecutionTime = 0.37 s  ClockTime = 1 s  Iteration 66 (0.001 s)

Time = 6.7e-08

    Collisions                      = 3

    Number of DSMC particles        = 10000
    Number of stuck particles       = 2000
    Number of free particles        = 8000
    Average linear kinetic energy   = 4.013218883e-20
    Average rotational energy       = 0
    Average vibrational energy      = 0
    Average electronic energy       = 0
    Total energy                    = 3.210575106e-14

Stage 1.0  ExecutionTime = 0.38 s  ClockTime = 1 s  Iteration 67 (0.01 s)

Time = 6.8e-08

    Collisions                      = 1

    Number of DSMC particles        = 10000
    Number of stuck particles       = 2000
    Number of free particles        = 8000
    Average linear kinetic energy   = 4.014744232e-20
    Average rotational energy       = 0
    Average vibrational energy      = 0
    Average electronic energy       = 0
    Total energy                    = 3.211795385e-14

Stage 1.0  ExecutionTime = 0.38 s  ClockTime = 1 s  Iteration 68 (0.001 s)

Time = 6.9e-08

    Collisions                      = 2

    Number of DSMC particles        = 10000
    Number of stuck particles       = 2000
    Number of free particles        = 8000
    Average linear kinetic energy   = 3.998739204e-20
    Average rotational energy       = 0
    Average vibrational energy      = 0
    Average electronic energy       = 0
    Total energy                    = 3.198991363e-14

Stage 1.0  ExecutionTime = 0.39 s  ClockTime = 1 s  Iteration 69 (0.01 s)

Time = 7e-08

    Collisions                      = 1

    Number of DSMC particles        = 10000
    Number of stuck particles       = 2000
    Number of free particles        = 8000
    Average linear kinetic energy   = 3.99967074e-20
    Average rotational energy       = 0
    Average vibrational energy      = 0
    Average electronic energy       = 0
    Total energy                    = 3.199736592e-14

Stage 1.0  ExecutionTime = 0.39 s  ClockTime = 1 s  Iteration 70 (0.001 s)

Time = 7.1e-08

    Collisions                      = 2

    Number of DSMC particles        = 10000
    Number of stuck particles       = 1999
    Number of free particles        = 8001
    Average linear kinetic energy   = 4.000954579e-20
    Average rotational energy       = 0
    Average vibrational energy      = 0
    Average electronic energy       = 0
    Total energy                    = 3.201163759e-14

Stage 1.0  ExecutionTime = 0.4 s  ClockTime = 1 s  Iteration 71 (0.01 s)

Time = 7.2e-08

    Collisions                      = 3

    Number of DSMC particles        = 10000
    Number of stuck particles       = 1999
    Number of free particles        = 8001
    Average linear kinetic energy   = 4.003238039e-20
    Average rotational energy       = 0
    Average vibrational energy      = 0
    Average electronic energy       = 0
    Total energy                    = 3.202990755e-14

Stage 1.0  ExecutionTime = 0.4 s  ClockTime = 1 s  Iteration 72 (0.001 s)

Time = 7.3e-08

    Collisions                      = 1

    Number of DSMC particles        = 10000
    Number of stuck particles       = 2000
    Number of free particles        = 8000
    Average linear kinetic energy   = 4.012168544e-20
    Average rotational energy       = 0
    Average vibrational energy      = 0
    Average electronic energy       = 0
    Total energy                    = 3.209734835e-14

Stage 1.0  ExecutionTime = 0.41 s  ClockTime = 1 s  Iteration 73 (0.01 s)

Time = 7.4e-08

    Collisions                      = 1

    Number of DSMC particles        = 10000
    Number of stuck particles       = 2000
    Number of free particles        = 8000
    Average linear kinetic energy   = 4.011988394e-20
    Average rotational energy       = 0
    Average vibrational energy      = 0
    Average electronic energy       = 0
    Total energy                    = 3.209590715e-14

Stage 1.0  ExecutionTime = 0.41 s  ClockTime = 1 s  Iteration 74 (0.001 s)

Time = 7.5e-08

    Collisions                      = 2

    Number of DSMC particles        = 10000
    Number of stuck particles       = 1999
    Number of free particles        = 8001
    Average linear kinetic energy   = 4.009551828e-20
    Average rotational energy       = 0
    Average vibrational energy      = 0
    Average electronic energy       = 0
    Total energy                    = 3.208042417e-14

Stage 1.0  ExecutionTime = 0.42 s  ClockTime = 1 s  Iteration 75 (0.01 s)

Time = 7.6e-08

    Collisions                      = 4

    Number of DSMC particles        = 10000
    Number of stuck particles       = 2000
    Number of free particles        = 8000
    Average linear kinetic energy   = 4.012607975e-20
    Average rotational energy       = 0
    Average vibrational energy      = 0
    Average electronic energy       = 0
    Total energy                    = 3.21008638e-14

Stage 1.0  ExecutionTime = 0.42 s  ClockTime = 1 s  Iteration 76 (0.001 s)

Time = 7.7e-08

    Collisions                      = 1

    Number of DSMC particles        = 10000
    Number of stuck particles       = 1999
    Number of free particles        = 8001
    Average linear kinetic energy   = 4.005189062e-20
    Average rotational energy       = 0
    Average vibrational energy      = 0
    Average electronic energy       = 0
    Total energy                    = 3.204551769e-14

Stage 1.0  ExecutionTime = 0.43 s  ClockTime = 1 s  Iteration 77 (0.01 s)

Time = 7.8e-08

    Collisions                      = 2

    Number of DSMC particles        = 10000
    Number of stuck particles       = 1997
    Number of free particles        = 8003
    Average linear kinetic energy   = 4.01472421e-20
    Average rotational energy       = 0
    Average vibrational energy      = 0
    Average electronic energy       = 0
    Total energy                    = 3.212983785e-14

Stage 1.0  ExecutionTime = 0.43 s  ClockTime = 1 s  Iteration 78 (0.001 s)

Time = 7.9e-08

    Collisions                      = 3

    Number of DSMC particles        = 10000
    Number of stuck particles       = 2000
    Number of free particles        = 8000
    Average linear kinetic energy   = 4.009617847e-20
    Average rotational energy       = 0
    Average vibrational energy      = 0
    Average electronic energy       = 0
    Total energy                    = 3.207694278e-14

Stage 1.0  ExecutionTime = 0.44 s  ClockTime = 1 s  Iteration 79 (0.01 s)

Time = 8e-08

    Collisions                      = 2

    Number of DSMC particles        = 10000
    Number of stuck particles       = 2000
    Number of free particles        = 8000
    Average linear kinetic energy   = 4.012284417e-20
    Average rotational energy       = 0
    Average vibrational energy      = 0
    Average electronic energy       = 0
    Total energy                    = 3.209827534e-14

Stage 1.0  ExecutionTime = 0.44 s  ClockTime = 1 s  Iteration 80 (0.001 s)

Time = 8.1e-08

    Collisions                      = 2

    Number of DSMC particles        = 10000
    Number of stuck particles       = 2000
    Number of free particles        = 8000
    Average linear kinetic energy   = 4.021278574e-20
    Average rotational energy       = 0
    Average vibrational energy      = 0
    Average electronic energy       = 0
    Total energy                    = 3.217022859e-14

Stage 1.0  ExecutionTime = 0.45 s  ClockTime = 1 s  Iteration 81 (0.01 s)

Time = 8.2e-08

    Collisions                      = 0

    Number of DSMC particles        = 10000
    Number of stuck particles       = 2000
    Number of free particles        = 8000
    Average linear kinetic energy   = 4.034856158e-20
    Average rotational energy       = 0
    Average vibrational energy      = 0
    Average electronic energy       = 0
    Total energy                    = 3.227884927e-14

Stage 1.0  ExecutionTime = 0.45 s  ClockTime = 1 s  Iteration 82 (0.001 s)

Time = 8.3e-08

    Collisions                      = 1

    Number of DSMC particles        = 10000
    Number of stuck particles       = 2000
    Number of free particles        = 8000
    Average linear kinetic energy   = 4.032848884e-20
    Average rotational energy       = 0
    Average vibrational energy      = 0
    Average electronic energy       = 0
    Total energy                    = 3.226279107e-14

Stage 1.0  ExecutionTime = 0.46 s  ClockTime = 1 s  Iteration 83 (0.01 s)

Time = 8.4e-08

    Collisions                      = 2

    Number of DSMC particles        = 10000
    Number of stuck particles       = 1998
    Number of free particles        = 8002
    Average linear kinetic energy   = 4.043323492e-20
    Average rotational energy       = 0
    Average vibrational energy      = 0
    Average electronic energy       = 0
    Total energy                    = 3.235467458e-14

Stage 1.0  ExecutionTime = 0.46 s  ClockTime = 1 s  Iteration 84 (0.001 s)

Time = 8.5e-08

    Collisions                      = 2

    Number of DSMC particles        = 10000
    Number of stuck particles       = 2000
    Number of free particles        = 8000
    Average linear kinetic energy   = 4.045214444e-20
    Average rotational energy       = 0
    Average vibrational energy      = 0
    Average electronic energy       = 0
    Total energy                    = 3.236171555e-14

Stage 1.0  ExecutionTime = 0.47 s  ClockTime = 1 s  Iteration 85 (0.01 s)

Time = 8.6e-08

    Collisions                      = 3

    Number of DSMC particles        = 10000
    Number of stuck particles       = 2000
    Number of free particles        = 8000
    Average linear kinetic energy   = 4.045958859e-20
    Average rotational energy       = 0
    Average vibrational energy      = 0
    Average electronic energy       = 0
    Total energy                    = 3.236767087e-14

Stage 1.0  ExecutionTime = 0.47 s  ClockTime = 1 s  Iteration 86 (0.001 s)

Time = 8.7e-08

    Collisions                      = 1

    Number of DSMC particles        = 10000
    Number of stuck particles       = 2000
    Number of free particles        = 8000
    Average linear kinetic energy   = 4.039988082e-20
    Average rotational energy       = 0
    Average vibrational energy      = 0
    Average electronic energy       = 0
    Total energy                    = 3.231990466e-14

Stage 1.0  ExecutionTime = 0.48 s  ClockTime = 1 s  Iteration 87 (0.01 s)

Time = 8.8e-08

    Collisions                      = 2

    Number of DSMC particles        = 10000
    Number of stuck particles       = 2000
    Number of free particles        = 8000
    Average linear kinetic energy   = 4.060840708e-20
    Average rotational energy       = 0
    Average vibrational energy      = 0
    Average electronic energy       = 0
    Total energy                    = 3.248672567e-14

Stage 1.0  ExecutionTime = 0.48 s  ClockTime = 1 s  Iteration 88 (0.001 s)

Time = 8.9e-08

    Collisions                      = 1

    Number of DSMC particles        = 10000
    Number of stuck particles       = 2000
    Number of free particles        = 8000
    Average linear kinetic energy   = 4.049846702e-20
    Average rotational energy       = 0
    Average vibrational energy      = 0
    Average electronic energy       = 0
    Total energy                    = 3.239877361e-14

Stage 1.0  ExecutionTime = 0.49 s  ClockTime = 1 s  Iteration 89 (0.01 s)

Time = 9e-08

    Collisions                      = 0

    Number of DSMC particles        = 10000
    Number of stuck particles       = 1999
    Number of free particles        = 8001
    Average linear kinetic energy   = 4.057636105e-20
    Average rotational energy       = 0
    Average vibrational energy      = 0
    Average electronic energy       = 0
    Total energy                    = 3.246514648e-14

Stage 1.0  ExecutionTime = 0.49 s  ClockTime = 1 s  Iteration 90 (0.001 s)

Time = 9.1e-08

    Collisions                      = 3

    Number of DSMC particles        = 10000
    Number of stuck particles       = 1999
    Number of free particles        = 8001
    Average linear kinetic energy   = 4.052140904e-20
    Average rotational energy       = 0
    Average vibrational energy      = 0
    Average electronic energy       = 0
    Total energy                    = 3.242117937e-14

Stage 1.0  ExecutionTime = 0.5 s  ClockTime = 1 s  Iteration 91 (0.01 s)

Time = 9.2e-08

    Collisions                      = 3

    Number of DSMC particles        = 10000
    Number of stuck particles       = 2000
    Number of free particles        = 8000
    Average linear kinetic energy   = 4.046807003e-20
    Average rotational energy       = 0
    Average vibrational energy      = 0
    Average electronic energy       = 0
    Total energy                    = 3.237445602e-14

Stage 1.0  ExecutionTime = 0.5 s  ClockTime = 1 s  Iteration 92 (0.001 s)

Time = 9.3e-08

    Collisions                      = 3

    Number of DSMC particles        = 10000
    Number of stuck particles       = 2000
    Number of free particles        = 8000
    Average linear kinetic energy   = 4.04915009e-20
    Average rotational energy       = 0
    Average vibrational energy      = 0
    Average electronic energy       = 0
    Total energy                    = 3.239320072e-14

Stage 1.0  ExecutionTime = 0.51 s  ClockTime = 1 s  Iteration 93 (0.01 s)

Time = 9.4e-08

    Collisions                      = 0

    Number of DSMC particles        = 10000
    Number of stuck particles       = 2000
    Number of free particles        = 8000
    Average linear kinetic energy   = 4.049762275e-20
    Average rotational energy       = 0
    Average vibrational energy      = 0
    Average electronic energy       = 0
    Total energy                    = 3.23980982e-14

Stage 1.0  ExecutionTime = 0.51 s  ClockTime = 1 s  Iteration 94 (0.001 s)

Time = 9.5e-08

    Collisions                      = 2

    Number of DSMC particles        = 10000
    Number of stuck particles       = 1997
    Number of free particles        = 8003
    Average linear kinetic energy   = 4.055453279e-20
    Average rotational energy       = 0
    Average vibrational energy      = 0
    Average electronic energy       = 0
    Total energy                    = 3.245579259e-14

Stage 1.0  ExecutionTime = 0.51 s  ClockTime = 1 s  Iteration 95 (0.001 s)

Time = 9.6e-08

    Collisions                      = 1

    Number of DSMC particles        = 10000
    Number of stuck particles       = 2000
    Number of free particles        = 8000
    Average linear kinetic energy   = 4.05773705e-20
    Average rotational energy       = 0
    Average vibrational energy      = 0
    Average electronic energy       = 0
    Total energy                    = 3.24618964e-14

Stage 1.0  ExecutionTime = 0.52 s  ClockTime = 1 s  Iteration 96 (0.01 s)

Time = 9.7e-08

    Collisions                      = 1

    Number of DSMC particles        = 10000
    Number of stuck particles       = 2000
    Number of free particles        = 8000
    Average linear kinetic energy   = 4.060126873e-20
    Average rotational energy       = 0
    Average vibrational energy      = 0
    Average electronic energy       = 0
    Total energy                    = 3.248101498e-14

Stage 1.0  ExecutionTime = 0.52 s  ClockTime = 1 s  Iteration 97 (0.001 s)

Time = 9.8e-08

    Collisions                      = 0

    Number of DSMC particles        = 10000
    Number of stuck particles       = 1999
    Number of free particles        = 8001
    Average linear kinetic energy   = 4.065428124e-20
    Average rotational energy       = 0
    Average vibrational energy      = 0
    Average electronic energy       = 0
    Total energy                    = 3.252749042e-14

Stage 1.0  ExecutionTime = 0.53 s  ClockTime = 1 s  Iteration 98 (0.01 s)

Time = 9.9e-08

    Collisions                      = 3

    Number of DSMC particles        = 10000
    Number of stuck particles       = 2000
    Number of free particles        = 8000
    Average linear kinetic energy   = 4.083160786e-20
    Average rotational energy       = 0
    Average vibrational energy      = 0
    Average electronic energy       = 0
    Total energy                    = 3.266528629e-14

Stage 1.0  ExecutionTime = 0.53 s  ClockTime = 1 s  Iteration 99 (0.001 s)

Time = 1e-07

    Collisions                      = 3

    Number of DSMC particles        = 10000
    Number of stuck particles       = 2000
    Number of free particles        = 8000
    Average linear kinetic energy   = 4.079387744e-20
    Average rotational energy       = 0
    Average vibrational energy      = 0
    Average electronic energy       = 0
    Total energy                    = 3.263510195e-14

Stage 1.0  ExecutionTime = 0.54 s  ClockTime = 1 s  Iteration 100 (0.01 s)

Time = 1.01e-07

    Collisions                      = 3

    Number of DSMC particles        = 10000
    Number of stuck particles       = 1996
    Number of free particles        = 8004
    Average linear kinetic energy   = 4.080409714e-20
    Average rotational energy       = 0
    Average vibrational energy      = 0
    Average electronic energy       = 0
    Total energy                    = 3.265959935e-14

Stage 1.0  ExecutionTime = 0.54 s  ClockTime = 1 s  Iteration 101 (0.001 s)

Time = 1.02e-07

    Collisions                      = 3

    Number of DSMC particles        = 10000
    Number of stuck particles       = 2000
    Number of free particles        = 8000
    Average linear kinetic energy   = 4.095527491e-20
    Average rotational energy       = 0
    Average vibrational energy      = 0
    Average electronic energy       = 0
    Total energy                    = 3.276421993e-14

Stage 1.0  ExecutionTime = 0.55 s  ClockTime = 1 s  Iteration 102 (0.01 s)

Time = 1.03e-07

    Collisions                      = 2

    Number of DSMC particles        = 10000
    Number of stuck particles       = 2000
    Number of free particles        = 8000
    Average linear kinetic energy   = 4.107256543e-20
    Average rotational energy       = 0
    Average vibrational energy      = 0
    Average electronic energy       = 0
    Total energy                    = 3.285805234e-14

Stage 1.0  ExecutionTime = 0.55 s  ClockTime = 1 s  Iteration 103 (0.001 s)

Time = 1.04e-07

    Collisions                      = 3

    Number of DSMC particles        = 10000
    Number of stuck particles       = 2000
    Number of free particles        = 8000
    Average linear kinetic energy   = 4.120275926e-20
    Average rotational energy       = 0
    Average vibrational energy      = 0
    Average electronic energy       = 0
    Total energy                    = 3.296220741e-14

Stage 1.0  ExecutionTime = 0.56 s  ClockTime = 1 s  Iteration 104 (0.01 s)

Time = 1.05e-07

    Collisions                      = 2

    Number of DSMC particles        = 10000
    Number of stuck particles       = 1999
    Number of free particles        = 8001
    Average linear kinetic energy   = 4.127414378e-20
    Average rotational energy       = 0
    Average vibrational energy      = 0
    Average electronic energy       = 0
    Total energy                    = 3.302344244e-14

Stage 1.0  ExecutionTime = 0.56 s  ClockTime = 1 s  Iteration 105 (0.001 s)

Time = 1.06e-07

    Collisions                      = 2

    Number of DSMC particles        = 10000
    Number of stuck particles       = 1997
    Number of free particles        = 8003
    Average linear kinetic energy   = 4.109379952e-20
    Average rotational energy       = 0
    Average vibrational energy      = 0
    Average electronic energy       = 0
    Total energy                    = 3.288736776e-14

Stage 1.0  ExecutionTime = 0.56 s  ClockTime = 1 s  Iteration 106 (0.001 s)

Time = 1.07e-07

    Collisions                      = 0

    Number of DSMC particles        = 10000
    Number of stuck particles       = 1999
    Number of free particles        = 8001
    Average linear kinetic energy   = 4.09695236e-20
    Average rotational energy       = 0
    Average vibrational energy      = 0
    Average electronic energy       = 0
    Total energy                    = 3.277971583e-14

Stage 1.0  ExecutionTime = 0.57 s  ClockTime = 1 s  Iteration 107 (0.01 s)

Time = 1.08e-07

    Collisions                      = 2

    Number of DSMC particles        = 10000
    Number of stuck particles       = 2000
    Number of free particles        = 8000
    Average linear kinetic energy   = 4.09637048e-20
    Average rotational energy       = 0
    Average vibrational energy      = 0
    Average electronic energy       = 0
    Total energy                    = 3.277096384e-14

Stage 1.0  ExecutionTime = 0.57 s  ClockTime = 1 s  Iteration 108 (0.001 s)

Time = 1.09e-07

    Collisions                      = 2

    Number of DSMC particles        = 10000
    Number of stuck particles       = 1999
    Number of free particles        = 8001
    Average linear kinetic energy   = 4.099368611e-20
    Average rotational energy       = 0
    Average vibrational energy      = 0
    Average electronic energy       = 0
    Total energy                    = 3.279904826e-14

Stage 1.0  ExecutionTime = 0.58 s  ClockTime = 1 s  Iteration 109 (0.01 s)

Time = 1.1e-07

    Collisions                      = 2

    Number of DSMC particles        = 10000
    Number of stuck particles       = 1999
    Number of free particles        = 8001
    Average linear kinetic energy   = 4.094466532e-20
    Average rotational energy       = 0
    Average vibrational energy      = 0
    Average electronic energy       = 0
    Total energy                    = 3.275982672e-14

Stage 1.0  ExecutionTime = 0.58 s  ClockTime = 1 s  Iteration 110 (0.001 s)

Time = 1.11e-07

    Collisions                      = 1

    Number of DSMC particles        = 10000
    Number of stuck particles       = 1998
    Number of free particles        = 8002
    Average linear kinetic energy   = 4.091037477e-20
    Average rotational energy       = 0
    Average vibrational energy      = 0
    Average electronic energy       = 0
    Total energy                    = 3.273648189e-14

Stage 1.0  ExecutionTime = 0.59 s  ClockTime = 1 s  Iteration 111 (0.01 s)

Time = 1.12e-07

    Collisions                      = 2

    Number of DSMC particles        = 10000
    Number of stuck particles       = 1999
    Number of free particles        = 8001
    Average linear kinetic energy   = 4.103670227e-20
    Average rotational energy       = 0
    Average vibrational energy      = 0
    Average electronic energy       = 0
    Total energy                    = 3.283346549e-14

Stage 1.0  ExecutionTime = 0.59 s  ClockTime = 1 s  Iteration 112 (0.001 s)

Time = 1.13e-07

    Collisions                      = 2

    Number of DSMC particles        = 10000
    Number of stuck particles       = 1999
    Number of free particles        = 8001
    Average linear kinetic energy   = 4.09368189e-20
    Average rotational energy       = 0
    Average vibrational energy      = 0
    Average electronic energy       = 0
    Total energy                    = 3.27535488e-14

Stage 1.0  ExecutionTime = 0.6 s  ClockTime = 1 s  Iteration 113 (0.01 s)

Time = 1.14e-07

    Collisions                      = 1

    Number of DSMC particles        = 10000
    Number of stuck particles       = 1999
    Number of free particles        = 8001
    Average linear kinetic energy   = 4.098000255e-20
    Average rotational energy       = 0
    Average vibrational energy      = 0
    Average electronic energy       = 0
    Total energy                    = 3.278810004e-14

Stage 1.0  ExecutionTime = 0.6 s  ClockTime = 1 s  Iteration 114 (0.001 s)

Time = 1.15e-07

    Collisions                      = 2

    Number of DSMC particles        = 10000
    Number of stuck particles       = 1998
    Number of free particles        = 8002
    Average linear kinetic energy   = 4.0889782e-20
    Average rotational energy       = 0
    Average vibrational energy      = 0
    Average electronic energy       = 0
    Total energy                    = 3.272000356e-14

Stage 1.0  ExecutionTime = 0.61 s  ClockTime = 1 s  Iteration 115 (0.01 s)

Time = 1.16e-07

    Collisions                      = 3

    Number of DSMC particles        = 10000
    Number of stuck particles       = 2000
    Number of free particles        = 8000
    Average linear kinetic energy   = 4.09007191e-20
    Average rotational energy       = 0
    Average vibrational energy      = 0
    Average electronic energy       = 0
    Total energy                    = 3.272057528e-14

Stage 1.0  ExecutionTime = 0.61 s  ClockTime = 1 s  Iteration 116 (0.001 s)

Time = 1.17e-07

    Collisions                      = 3

    Number of DSMC particles        = 10000
    Number of stuck particles       = 1998
    Number of free particles        = 8002
    Average linear kinetic energy   = 4.082287164e-20
    Average rotational energy       = 0
    Average vibrational energy      = 0
    Average electronic energy       = 0
    Total energy                    = 3.266646188e-14

Stage 1.0  ExecutionTime = 0.62 s  ClockTime = 1 s  Iteration 117 (0.01 s)

Time = 1.18e-07

    Collisions                      = 3

    Number of DSMC particles        = 10000
    Number of stuck particles       = 2000
    Number of free particles        = 8000
    Average linear kinetic energy   = 4.079583522e-20
    Average rotational energy       = 0
    Average vibrational energy      = 0
    Average electronic energy       = 0
    Total energy                    = 3.263666817e-14

Stage 1.0  ExecutionTime = 0.62 s  ClockTime = 1 s  Iteration 118 (0.001 s)

Time = 1.19e-07

    Collisions                      = 2

    Number of DSMC particles        = 10000
    Number of stuck particles       = 1999
    Number of free particles        = 8001
    Average linear kinetic energy   = 4.073339448e-20
    Average rotational energy       = 0
    Average vibrational energy      = 0
    Average electronic energy       = 0
    Total energy                    = 3.259078892e-14

Stage 1.0  ExecutionTime = 0.62 s  ClockTime = 1 s  Iteration 119 (0.001 s)

Time = 1.2e-07

    Collisions                      = 1

    Number of DSMC particles        = 10000
    Number of stuck particles       = 2000
    Number of free particles        = 8000
    Average linear kinetic energy   = 4.060372095e-20
    Average rotational energy       = 0
    Average vibrational energy      = 0
    Average electronic energy       = 0
    Total energy                    = 3.248297676e-14

Stage 1.0  ExecutionTime = 0.63 s  ClockTime = 1 s  Iteration 120 (0.01 s)

Time = 1.21e-07

    Collisions                      = 3

    Number of DSMC particles        = 10000
    Number of stuck particles       = 2000
    Number of free particles        = 8000
    Average linear kinetic energy   = 4.056587311e-20
    Average rotational energy       = 0
    Average vibrational energy      = 0
    Average electronic energy       = 0
    Total energy                    = 3.245269849e-14

Stage 1.0  ExecutionTime = 0.63 s  ClockTime = 1 s  Iteration 121 (0.001 s)

Time = 1.22e-07

    Collisions                      = 2

    Number of DSMC particles        = 10000
    Number of stuck particles       = 2000
    Number of free particles        = 8000
    Average linear kinetic energy   = 4.037396988e-20
    Average rotational energy       = 0
    Average vibrational energy      = 0
    Average electronic energy       = 0
    Total energy                    = 3.229917591e-14

Stage 1.0  ExecutionTime = 0.64 s  ClockTime = 1 s  Iteration 122 (0.01 s)

Time = 1.23e-07

    Collisions                      = 3

    Number of DSMC particles        = 10000
    Number of stuck particles       = 2000
    Number of free particles        = 8000
    Average linear kinetic energy   = 4.043349945e-20
    Average rotational energy       = 0
    Average vibrational energy      = 0
    Average electronic energy       = 0
    Total energy                    = 3.234679956e-14

Stage 1.0  ExecutionTime = 0.64 s  ClockTime = 1 s  Iteration 123 (0.001 s)

Time = 1.24e-07

    Collisions                      = 3

    Number of DSMC particles        = 10000
    Number of stuck particles       = 2000
    Number of free particles        = 8000
    Average linear kinetic energy   = 4.055411452e-20
    Average rotational energy       = 0
    Average vibrational energy      = 0
    Average electronic energy       = 0
    Total energy                    = 3.244329161e-14

Stage 1.0  ExecutionTime = 0.65 s  ClockTime = 1 s  Iteration 124 (0.01 s)

Time = 1.25e-07

    Collisions                      = 1

    Number of DSMC particles        = 10000
    Number of stuck particles       = 2000
    Number of free particles        = 8000
    Average linear kinetic energy   = 4.055892614e-20
    Average rotational energy       = 0
    Average vibrational energy      = 0
    Average electronic energy       = 0
    Total energy                    = 3.244714091e-14

Stage 1.0  ExecutionTime = 0.65 s  ClockTime = 1 s  Iteration 125 (0.001 s)

Time = 1.26e-07

    Collisions                      = 2

    Number of DSMC particles        = 10000
    Number of stuck particles       = 1999
    Number of free particles        = 8001
    Average linear kinetic energy   = 4.04056363e-20
    Average rotational energy       = 0
    Average vibrational energy      = 0
    Average electronic energy       = 0
    Total energy                    = 3.232854961e-14

Stage 1.0  ExecutionTime = 0.66 s  ClockTime = 1 s  Iteration 126 (0.01 s)

Time = 1.27e-07

    Collisions                      = 2

    Number of DSMC particles        = 10000
    Number of stuck particles       = 2000
    Number of free particles        = 8000
    Average linear kinetic energy   = 4.034824858e-20
    Average rotational energy       = 0
    Average vibrational energy      = 0
    Average electronic energy       = 0
    Total energy                    = 3.227859887e-14

Stage 1.0  ExecutionTime = 0.66 s  ClockTime = 1 s  Iteration 127 (0.001 s)

Time = 1.28e-07

    Collisions                      = 1

    Number of DSMC particles        = 10000
    Number of stuck particles       = 1997
    Number of free particles        = 8003
    Average linear kinetic energy   = 4.028878193e-20
    Average rotational energy       = 0
    Average vibrational energy      = 0
    Average electronic energy       = 0
    Total energy                    = 3.224311218e-14

Stage 1.0  ExecutionTime = 0.67 s  ClockTime = 1 s  Iteration 128 (0.01 s)

Time = 1.29e-07

    Collisions                      = 1

    Number of DSMC particles        = 10000
    Number of stuck particles       = 1999
    Number of free particles        = 8001
    Average linear kinetic energy   = 4.027452491e-20
    Average rotational energy       = 0
    Average vibrational energy      = 0
    Average electronic energy       = 0
    Total energy                    = 3.222364738e-14

Stage 1.0  ExecutionTime = 0.67 s  ClockTime = 1 s  Iteration 129 (0.001 s)

Time = 1.3e-07

    Collisions                      = 2

    Number of DSMC particles        = 10000
    Number of stuck particles       = 2000
    Number of free particles        = 8000
    Average linear kinetic energy   = 4.042245721e-20
    Average rotational energy       = 0
    Average vibrational energy      = 0
    Average electronic energy       = 0
    Total energy                    = 3.233796577e-14

Stage 1.0  ExecutionTime = 0.68 s  ClockTime = 1 s  Iteration 130 (0.01 s)

Time = 1.31e-07

    Collisions                      = 1

    Number of DSMC particles        = 10000
    Number of stuck particles       = 2000
    Number of free particles        = 8000
    Average linear kinetic energy   = 4.062609656e-20
    Average rotational energy       = 0
    Average vibrational energy      = 0
    Average electronic energy       = 0
    Total energy                    = 3.250087725e-14

Stage 1.0  ExecutionTime = 0.68 s  ClockTime = 1 s  Iteration 131 (0.001 s)

Time = 1.32e-07

    Collisions                      = 2

    Number of DSMC particles        = 10000
    Number of stuck particles       = 2000
    Number of free particles        = 8000
    Average linear kinetic energy   = 4.065102541e-20
    Average rotational energy       = 0
    Average vibrational energy      = 0
    Average electronic energy       = 0
    Total energy                    = 3.252082033e-14

Stage 1.0  ExecutionTime = 0.69 s  ClockTime = 1 s  Iteration 132 (0.01 s)

Time = 1.33e-07

    Collisions                      = 3

    Number of DSMC particles        = 10000
    Number of stuck particles       = 2000
    Number of free particles        = 8000
    Average linear kinetic energy   = 4.060881176e-20
    Average rotational energy       = 0
    Average vibrational energy      = 0
    Average electronic energy       = 0
    Total energy                    = 3.248704941e-14

Stage 1.0  ExecutionTime = 0.69 s  ClockTime = 1 s  Iteration 133 (0.001 s)

Time = 1.34e-07

    Collisions                      = 1

    Number of DSMC particles        = 10000
    Number of stuck particles       = 1999
    Number of free particles        = 8001
    Average linear kinetic energy   = 4.058145236e-20
    Average rotational energy       = 0
    Average vibrational energy      = 0
    Average electronic energy       = 0
    Total energy                    = 3.246922004e-14

Stage 1.0  ExecutionTime = 0.69 s  ClockTime = 1 s  Iteration 134 (0.001 s)

Time = 1.35e-07

    Collisions                      = 2

    Number of DSMC particles        = 10000
    Number of stuck particles       = 1999
    Number of free particles        = 8001
    Average linear kinetic energy   = 4.066042699e-20
    Average rotational energy       = 0
    Average vibrational energy      = 0
    Average electronic energy       = 0
    Total energy                    = 3.253240764e-14

Stage 1.0  ExecutionTime = 0.7 s  ClockTime = 1 s  Iteration 135 (0.01 s)

Time = 1.36e-07

    Collisions                      = 2

    Number of DSMC particles        = 10000
    Number of stuck particles       = 1998
    Number of free particles        = 8002
    Average linear kinetic energy   = 4.073345523e-20
    Average rotational energy       = 0
    Average vibrational energy      = 0
    Average electronic energy       = 0
    Total energy                    = 3.259491088e-14

Stage 1.0  ExecutionTime = 0.7 s  ClockTime = 1 s  Iteration 136 (0.001 s)

Time = 1.37e-07

    Collisions                      = 2

    Number of DSMC particles        = 10000
    Number of stuck particles       = 2000
    Number of free particles        = 8000
    Average linear kinetic energy   = 4.090077198e-20
    Average rotational energy       = 0
    Average vibrational energy      = 0
    Average electronic energy       = 0
    Total energy                    = 3.272061759e-14

Stage 1.0  ExecutionTime = 0.71 s  ClockTime = 1 s  Iteration 137 (0.01 s)

Time = 1.38e-07

    Collisions                      = 3

    Number of DSMC particles        = 10000
    Number of stuck particles       = 1999
    Number of free particles        = 8001
    Average linear kinetic energy   = 4.099528529e-20
    Average rotational energy       = 0
    Average vibrational energy      = 0
    Average electronic energy       = 0
    Total energy                    = 3.280032776e-14

Stage 1.0  ExecutionTime = 0.71 s  ClockTime = 1 s  Iteration 138 (0.001 s)

Time = 1.39e-07

    Collisions                      = 2

    Number of DSMC particles        = 10000
    Number of stuck particles       = 1999
    Number of free particles        = 8001
    Average linear kinetic energy   = 4.102299642e-20
    Average rotational energy       = 0
    Average vibrational energy      = 0
    Average electronic energy       = 0
    Total energy                    = 3.282249944e-14

Stage 1.0  ExecutionTime = 0.72 s  ClockTime = 1 s  Iteration 139 (0.01 s)

Time = 1.4e-07

    Collisions                      = 2

    Number of DSMC particles        = 10000
    Number of stuck particles       = 1999
    Number of free particles        = 8001
    Average linear kinetic energy   = 4.120091505e-20
    Average rotational energy       = 0
    Average vibrational energy      = 0
    Average electronic energy       = 0
    Total energy                    = 3.296485213e-14

Stage 1.0  ExecutionTime = 0.72 s  ClockTime = 1 s  Iteration 140 (0.001 s)

Time = 1.41e-07

    Collisions                      = 2

    Number of DSMC particles        = 10000
    Number of stuck particles       = 2000
    Number of free particles        = 8000
    Average linear kinetic energy   = 4.128741523e-20
    Average rotational energy       = 0
    Average vibrational energy      = 0
    Average electronic energy       = 0
    Total energy                    = 3.302993218e-14

Stage 1.0  ExecutionTime = 0.72 s  ClockTime = 1 s  Iteration 141 (0.001 s)

Time = 1.42e-07

    Collisions                      = 2

    Number of DSMC particles        = 10000
    Number of stuck particles       = 2000
    Number of free particles        = 8000
    Average linear kinetic energy   = 4.118293836e-20
    Average rotational energy       = 0
    Average vibrational energy      = 0
    Average electronic energy       = 0
    Total energy                    = 3.294635069e-14

Stage 1.0  ExecutionTime = 0.73 s  ClockTime = 1 s  Iteration 142 (0.01 s)

Time = 1.43e-07

    Collisions                      = 2

    Number of DSMC particles        = 10000
    Number of stuck particles       = 1997
    Number of free particles        = 8003
    Average linear kinetic energy   = 4.127475586e-20
    Average rotational energy       = 0
    Average vibrational energy      = 0
    Average electronic energy       = 0
    Total energy                    = 3.303218712e-14

Stage 1.0  ExecutionTime = 0.73 s  ClockTime = 1 s  Iteration 143 (0.001 s)

Time = 1.44e-07

    Collisions                      = 1

    Number of DSMC particles        = 10000
    Number of stuck particles       = 2000
    Number of free particles        = 8000
    Average linear kinetic energy   = 4.131986258e-20
    Average rotational energy       = 0
    Average vibrational energy      = 0
    Average electronic energy       = 0
    Total energy                    = 3.305589006e-14

Stage 1.0  ExecutionTime = 0.74 s  ClockTime = 1 s  Iteration 144 (0.01 s)

Time = 1.45e-07

    Collisions                      = 2

    Number of DSMC particles        = 10000
    Number of stuck particles       = 2000
    Number of free particles        = 8000
    Average linear kinetic energy   = 4.126051008e-20
    Average rotational energy       = 0
    Average vibrational energy      = 0
    Average electronic energy       = 0
    Total energy                    = 3.300840806e-14

Stage 1.0  ExecutionTime = 0.75 s  ClockTime = 1 s  Iteration 145 (0.01 s)

Time = 1.46e-07

    Collisions                      = 2

    Number of DSMC particles        = 10000
    Number of stuck particles       = 1999
    Number of free particles        = 8001
    Average linear kinetic energy   = 4.14485135e-20
    Average rotational energy       = 0
    Average vibrational energy      = 0
    Average electronic energy       = 0
    Total energy                    = 3.316295565e-14

Stage 1.0  ExecutionTime = 0.76 s  ClockTime = 1 s  Iteration 146 (0.01 s)

Time = 1.47e-07

    Collisions                      = 0

    Number of DSMC particles        = 10000
    Number of stuck particles       = 1999
    Number of free particles        = 8001
    Average linear kinetic energy   = 4.172488062e-20
    Average rotational energy       = 0
    Average vibrational energy      = 0
    Average electronic energy       = 0
    Total energy                    = 3.338407698e-14

Stage 1.0  ExecutionTime = 0.76 s  ClockTime = 1 s  Iteration 147 (0.001 s)

Time = 1.48e-07

    Collisions                      = 3

    Number of DSMC particles        = 10000
    Number of stuck particles       = 1999
    Number of free particles        = 8001
    Average linear kinetic energy   = 4.171302149e-20
    Average rotational energy       = 0
    Average vibrational energy      = 0
    Average electronic energy       = 0
    Total energy                    = 3.33745885e-14

Stage 1.0  ExecutionTime = 0.76 s  ClockTime = 1 s  Iteration 148 (0.001 s)

Time = 1.49e-07

    Collisions                      = 2

    Number of DSMC particles        = 10000
    Number of stuck particles       = 2000
    Number of free particles        = 8000
    Average linear kinetic energy   = 4.175521438e-20
    Average rotational energy       = 0
    Average vibrational energy      = 0
    Average electronic energy       = 0
    Total energy                    = 3.34041715e-14

Stage 1.0  ExecutionTime = 0.77 s  ClockTime = 1 s  Iteration 149 (0.01 s)

Time = 1.5e-07

    Collisions                      = 0

    Number of DSMC particles        = 10000
    Number of stuck particles       = 2000
    Number of free particles        = 8000
    Average linear kinetic energy   = 4.170221916e-20
    Average rotational energy       = 0
    Average vibrational energy      = 0
    Average electronic energy       = 0
    Total energy                    = 3.336177533e-14

Stage 1.0  ExecutionTime = 0.77 s  ClockTime = 1 s  Iteration 150 (0.001 s)

Time = 1.51e-07

    Collisions                      = 3

    Number of DSMC particles        = 10000
    Number of stuck particles       = 2000
    Number of free particles        = 8000
    Average linear kinetic energy   = 4.168750283e-20
    Average rotational energy       = 0
    Average vibrational energy      = 0
    Average electronic energy       = 0
    Total energy                    = 3.335000226e-14

Stage 1.0  ExecutionTime = 0.78 s  ClockTime = 1 s  Iteration 151 (0.01 s)

Time = 1.52e-07

    Collisions                      = 2

    Number of DSMC particles        = 10000
    Number of stuck particles       = 1998
    Number of free particles        = 8002
    Average linear kinetic energy   = 4.171846288e-20
    Average rotational energy       = 0
    Average vibrational energy      = 0
    Average electronic energy       = 0
    Total energy                    = 3.3383114e-14

Stage 1.0  ExecutionTime = 0.78 s  ClockTime = 1 s  Iteration 152 (0.001 s)

Time = 1.53e-07

    Collisions                      = 1

    Number of DSMC particles        = 10000
    Number of stuck particles       = 2000
    Number of free particles        = 8000
    Average linear kinetic energy   = 4.176809921e-20
    Average rotational energy       = 0
    Average vibrational energy      = 0
    Average electronic energy       = 0
    Total energy                    = 3.341447936e-14

Stage 1.0  ExecutionTime = 0.79 s  ClockTime = 1 s  Iteration 153 (0.01 s)

Time = 1.54e-07

    Collisions                      = 1

    Number of DSMC particles        = 10000
    Number of stuck particles       = 1998
    Number of free particles        = 8002
    Average linear kinetic energy   = 4.184031092e-20
    Average rotational energy       = 0
    Average vibrational energy      = 0
    Average electronic energy       = 0
    Total energy                    = 3.34806168e-14

Stage 1.0  ExecutionTime = 0.79 s  ClockTime = 1 s  Iteration 154 (0.001 s)

Time = 1.55e-07

    Collisions                      = 3

    Number of DSMC particles        = 10000
    Number of stuck particles       = 1998
    Number of free particles        = 8002
    Average linear kinetic energy   = 4.175000136e-20
    Average rotational energy       = 0
    Average vibrational energy      = 0
    Average electronic energy       = 0
    Total energy                    = 3.340835109e-14

Stage 1.0  ExecutionTime = 0.8 s  ClockTime = 1 s  Iteration 155 (0.01 s)

Time = 1.56e-07

    Collisions                      = 2

    Number of DSMC particles        = 10000
    Number of stuck particles       = 1999
    Number of free particles        = 8001
    Average linear kinetic energy   = 4.184266152e-20
    Average rotational energy       = 0
    Average vibrational energy      = 0
    Average electronic energy       = 0
    Total energy                    = 3.347831348e-14

Stage 1.0  ExecutionTime = 0.8 s  ClockTime = 1 s  Iteration 156 (0.001 s)

Time = 1.57e-07

    Collisions                      = 2

    Number of DSMC particles        = 10000
    Number of stuck particles       = 2000
    Number of free particles        = 8000
    Average linear kinetic energy   = 4.185464985e-20
    Average rotational energy       = 0
    Average vibrational energy      = 0
    Average electronic energy       = 0
    Total energy                    = 3.348371988e-14

Stage 1.0  ExecutionTime = 0.81 s  ClockTime = 1 s  Iteration 157 (0.01 s)

Time = 1.58e-07

    Collisions                      = 2

    Number of DSMC particles        = 10000
    Number of stuck particles       = 2000
    Number of free particles        = 8000
    Average linear kinetic energy   = 4.163035301e-20
    Average rotational energy       = 0
    Average vibrational energy      = 0
    Average electronic energy       = 0
    Total energy                    = 3.330428241e-14

Stage 1.0  ExecutionTime = 0.81 s  ClockTime = 1 s  Iteration 158 (0.001 s)

Time = 1.59e-07

    Collisions                      = 1

[...]
    Average vibrational energy      = 0
    Average electronic energy       = 0
    Total energy                    = 3.260052804e-14

Stage 1.0  ExecutionTime = 4.84 s  ClockTime = 5 s  Iteration 960 (0.01 s)

Time = 9.61e-07

    Collisions                      = 2

    Number of DSMC particles        = 10000
    Number of stuck particles       = 2000
    Number of free particles        = 8000
    Average linear kinetic energy   = 4.087755657e-20
    Average rotational energy       = 0
    Average vibrational energy      = 0
    Average electronic energy       = 0
    Total energy                    = 3.270204526e-14

Stage 1.0  ExecutionTime = 4.84 s  ClockTime = 5 s  Iteration 961 (0.001 s)

Time = 9.62e-07

    Collisions                      = 1

    Number of DSMC particles        = 10000
    Number of stuck particles       = 2000
    Number of free particles        = 8000
    Average linear kinetic energy   = 4.103495662e-20
    Average rotational energy       = 0
    Average vibrational energy      = 0
    Average electronic energy       = 0
    Total energy                    = 3.28279653e-14

Stage 1.0  ExecutionTime = 4.84 s  ClockTime = 5 s  Iteration 962 (0.001 s)

Time = 9.63e-07

    Collisions                      = 1

    Number of DSMC particles        = 10000
    Number of stuck particles       = 1998
    Number of free particles        = 8002
    Average linear kinetic energy   = 4.117909996e-20
    Average rotational energy       = 0
    Average vibrational energy      = 0
    Average electronic energy       = 0
    Total energy                    = 3.295151579e-14

Stage 1.0  ExecutionTime = 4.85 s  ClockTime = 5 s  Iteration 963 (0.01 s)

Time = 9.64e-07

    Collisions                      = 3

    Number of DSMC particles        = 10000
    Number of stuck particles       = 1999
    Number of free particles        = 8001
    Average linear kinetic energy   = 4.105660613e-20
    Average rotational energy       = 0
    Average vibrational energy      = 0
    Average electronic energy       = 0
    Total energy                    = 3.284939056e-14

Stage 1.0  ExecutionTime = 4.85 s  ClockTime = 5 s  Iteration 964 (0.001 s)

Time = 9.65e-07

    Collisions                      = 2

    Number of DSMC particles        = 10000
    Number of stuck particles       = 2000
    Number of free particles        = 8000
    Average linear kinetic energy   = 4.100442524e-20
    Average rotational energy       = 0
    Average vibrational energy      = 0
    Average electronic energy       = 0
    Total energy                    = 3.280354019e-14

Stage 1.0  ExecutionTime = 4.86 s  ClockTime = 5 s  Iteration 965 (0.01 s)

Time = 9.66e-07

    Collisions                      = 1

    Number of DSMC particles        = 10000
    Number of stuck particles       = 2000
    Number of free particles        = 8000
    Average linear kinetic energy   = 4.125052489e-20
    Average rotational energy       = 0
    Average vibrational energy      = 0
    Average electronic energy       = 0
    Total energy                    = 3.300041991e-14

Stage 1.0  ExecutionTime = 4.86 s  ClockTime = 5 s  Iteration 966 (0.001 s)

Time = 9.67e-07

    Collisions                      = 2

    Number of DSMC particles        = 10000
    Number of stuck particles       = 1998
    Number of free particles        = 8002
    Average linear kinetic energy   = 4.11767805e-20
    Average rotational energy       = 0
    Average vibrational energy      = 0
    Average electronic energy       = 0
    Total energy                    = 3.294965976e-14

Stage 1.0  ExecutionTime = 4.87 s  ClockTime = 5 s  Iteration 967 (0.01 s)

Time = 9.68e-07

    Collisions                      = 3

    Number of DSMC particles        = 10000
    Number of stuck particles       = 1999
    Number of free particles        = 8001
    Average linear kinetic energy   = 4.129272171e-20
    Average rotational energy       = 0
    Average vibrational energy      = 0
    Average electronic energy       = 0
    Total energy                    = 3.303830664e-14

Stage 1.0  ExecutionTime = 4.87 s  ClockTime = 5 s  Iteration 968 (0.001 s)

Time = 9.69e-07

    Collisions                      = 2

    Number of DSMC particles        = 10000
    Number of stuck particles       = 2000
    Number of free particles        = 8000
    Average linear kinetic energy   = 4.12164948e-20
    Average rotational energy       = 0
    Average vibrational energy      = 0
    Average electronic energy       = 0
    Total energy                    = 3.297319584e-14

Stage 1.0  ExecutionTime = 4.88 s  ClockTime = 5 s  Iteration 969 (0.01 s)

Time = 9.7e-07

    Collisions                      = 1

    Number of DSMC particles        = 10000
    Number of stuck particles       = 2000
    Number of free particles        = 8000
    Average linear kinetic energy   = 4.125732677e-20
    Average rotational energy       = 0
    Average vibrational energy      = 0
    Average electronic energy       = 0
    Total energy                    = 3.300586141e-14

Stage 1.0  ExecutionTime = 4.88 s  ClockTime = 5 s  Iteration 970 (0.001 s)

Time = 9.71e-07

    Collisions                      = 2

    Number of DSMC particles        = 10000
    Number of stuck particles       = 2000
    Number of free particles        = 8000
    Average linear kinetic energy   = 4.126322804e-20
    Average rotational energy       = 0
    Average vibrational energy      = 0
    Average electronic energy       = 0
    Total energy                    = 3.301058243e-14

Stage 1.0  ExecutionTime = 4.89 s  ClockTime = 5 s  Iteration 971 (0.01 s)

Time = 9.72e-07

    Collisions                      = 2

    Number of DSMC particles        = 10000
    Number of stuck particles       = 1999
    Number of free particles        = 8001
    Average linear kinetic energy   = 4.122711195e-20
    Average rotational energy       = 0
    Average vibrational energy      = 0
    Average electronic energy       = 0
    Total energy                    = 3.298581227e-14

Stage 1.0  ExecutionTime = 4.89 s  ClockTime = 5 s  Iteration 972 (0.001 s)

Time = 9.73e-07

    Collisions                      = 2

    Number of DSMC particles        = 10000
    Number of stuck particles       = 1999
    Number of free particles        = 8001
    Average linear kinetic energy   = 4.122053322e-20
    Average rotational energy       = 0
    Average vibrational energy      = 0
    Average electronic energy       = 0
    Total energy                    = 3.298054863e-14

Stage 1.0  ExecutionTime = 4.9 s  ClockTime = 5 s  Iteration 973 (0.01 s)

Time = 9.74e-07

    Collisions                      = 2

    Number of DSMC particles        = 10000
    Number of stuck particles       = 1997
    Number of free particles        = 8003
    Average linear kinetic energy   = 4.130736748e-20
    Average rotational energy       = 0
    Average vibrational energy      = 0
    Average electronic energy       = 0
    Total energy                    = 3.30582862e-14

Stage 1.0  ExecutionTime = 4.9 s  ClockTime = 5 s  Iteration 974 (0.001 s)

Time = 9.75e-07

    Collisions                      = 1

    Number of DSMC particles        = 10000
    Number of stuck particles       = 1998
    Number of free particles        = 8002
    Average linear kinetic energy   = 4.118085737e-20
    Average rotational energy       = 0
    Average vibrational energy      = 0
    Average electronic energy       = 0
    Total energy                    = 3.295292207e-14

Stage 1.0  ExecutionTime = 4.9 s  ClockTime = 5 s  Iteration 975 (0.001 s)

Time = 9.76e-07

    Collisions                      = 3

    Number of DSMC particles        = 10000
    Number of stuck particles       = 2000
    Number of free particles        = 8000
    Average linear kinetic energy   = 4.112696689e-20
    Average rotational energy       = 0
    Average vibrational energy      = 0
    Average electronic energy       = 0
    Total energy                    = 3.290157351e-14

Stage 1.0  ExecutionTime = 4.91 s  ClockTime = 5 s  Iteration 976 (0.01 s)

Time = 9.77e-07

    Collisions                      = 3

    Number of DSMC particles        = 10000
    Number of stuck particles       = 2000
    Number of free particles        = 8000
    Average linear kinetic energy   = 4.086563359e-20
    Average rotational energy       = 0
    Average vibrational energy      = 0
    Average electronic energy       = 0
    Total energy                    = 3.269250687e-14

Stage 1.0  ExecutionTime = 4.91 s  ClockTime = 5 s  Iteration 977 (0.001 s)

Time = 9.78e-07

    Collisions                      = 0

    Number of DSMC particles        = 10000
    Number of stuck particles       = 2000
    Number of free particles        = 8000
    Average linear kinetic energy   = 4.092362055e-20
    Average rotational energy       = 0
    Average vibrational energy      = 0
    Average electronic energy       = 0
    Total energy                    = 3.273889644e-14

Stage 1.0  ExecutionTime = 4.92 s  ClockTime = 5 s  Iteration 978 (0.01 s)

Time = 9.79e-07

    Collisions                      = 1

    Number of DSMC particles        = 10000
    Number of stuck particles       = 1999
    Number of free particles        = 8001
    Average linear kinetic energy   = 4.102261257e-20
    Average rotational energy       = 0
    Average vibrational energy      = 0
    Average electronic energy       = 0
    Total energy                    = 3.282219232e-14

Stage 1.0  ExecutionTime = 4.92 s  ClockTime = 5 s  Iteration 979 (0.001 s)

Time = 9.8e-07

    Collisions                      = 2

    Number of DSMC particles        = 10000
    Number of stuck particles       = 1999
    Number of free particles        = 8001
    Average linear kinetic energy   = 4.100435937e-20
    Average rotational energy       = 0
    Average vibrational energy      = 0
    Average electronic energy       = 0
    Total energy                    = 3.280758794e-14

Stage 1.0  ExecutionTime = 4.93 s  ClockTime = 5 s  Iteration 980 (0.01 s)

Time = 9.81e-07

    Collisions                      = 2

    Number of DSMC particles        = 10000
    Number of stuck particles       = 2000
    Number of free particles        = 8000
    Average linear kinetic energy   = 4.110162307e-20
    Average rotational energy       = 0
    Average vibrational energy      = 0
    Average electronic energy       = 0
    Total energy                    = 3.288129845e-14

Stage 1.0  ExecutionTime = 4.93 s  ClockTime = 5 s  Iteration 981 (0.001 s)

Time = 9.82e-07

    Collisions                      = 2

    Number of DSMC particles        = 10000
    Number of stuck particles       = 1999
    Number of free particles        = 8001
    Average linear kinetic energy   = 4.133719972e-20
    Average rotational energy       = 0
    Average vibrational energy      = 0
    Average electronic energy       = 0
    Total energy                    = 3.30738935e-14

Stage 1.0  ExecutionTime = 4.94 s  ClockTime = 5 s  Iteration 982 (0.01 s)

Time = 9.83e-07

    Collisions                      = 1

    Number of DSMC particles        = 10000
    Number of stuck particles       = 1999
    Number of free particles        = 8001
    Average linear kinetic energy   = 4.135750881e-20
    Average rotational energy       = 0
    Average vibrational energy      = 0
    Average electronic energy       = 0
    Total energy                    = 3.30901428e-14

Stage 1.0  ExecutionTime = 4.94 s  ClockTime = 5 s  Iteration 983 (0.001 s)

Time = 9.84e-07

    Collisions                      = 3

    Number of DSMC particles        = 10000
    Number of stuck particles       = 2000
    Number of free particles        = 8000
    Average linear kinetic energy   = 4.132059211e-20
    Average rotational energy       = 0
    Average vibrational energy      = 0
    Average electronic energy       = 0
    Total energy                    = 3.305647369e-14

Stage 1.0  ExecutionTime = 4.95 s  ClockTime = 5 s  Iteration 984 (0.01 s)

Time = 9.85e-07

    Collisions                      = 2

    Number of DSMC particles        = 10000
    Number of stuck particles       = 2000
    Number of free particles        = 8000
    Average linear kinetic energy   = 4.154332247e-20
    Average rotational energy       = 0
    Average vibrational energy      = 0
    Average electronic energy       = 0
    Total energy                    = 3.323465798e-14

Stage 1.0  ExecutionTime = 4.95 s  ClockTime = 5 s  Iteration 985 (0.001 s)

Time = 9.86e-07

    Collisions                      = 2

    Number of DSMC particles        = 10000
    Number of stuck particles       = 2000
    Number of free particles        = 8000
    Average linear kinetic energy   = 4.149676742e-20
    Average rotational energy       = 0
    Average vibrational energy      = 0
    Average electronic energy       = 0
    Total energy                    = 3.319741393e-14

Stage 1.0  ExecutionTime = 4.96 s  ClockTime = 5 s  Iteration 986 (0.01 s)

Time = 9.87e-07

    Collisions                      = 2

    Number of DSMC particles        = 10000
    Number of stuck particles       = 2000
    Number of free particles        = 8000
    Average linear kinetic energy   = 4.138584866e-20
    Average rotational energy       = 0
    Average vibrational energy      = 0
    Average electronic energy       = 0
    Total energy                    = 3.310867893e-14

Stage 1.0  ExecutionTime = 4.96 s  ClockTime = 5 s  Iteration 987 (0.001 s)

Time = 9.88e-07

    Collisions                      = 0

    Number of DSMC particles        = 10000
    Number of stuck particles       = 2000
    Number of free particles        = 8000
    Average linear kinetic energy   = 4.141080662e-20
    Average rotational energy       = 0
    Average vibrational energy      = 0
    Average electronic energy       = 0
    Total energy                    = 3.312864529e-14

Stage 1.0  ExecutionTime = 4.97 s  ClockTime = 5 s  Iteration 988 (0.01 s)

Time = 9.89e-07

    Collisions                      = 2

    Number of DSMC particles        = 10000
    Number of stuck particles       = 2000
    Number of free particles        = 8000
    Average linear kinetic energy   = 4.13512403e-20
    Average rotational energy       = 0
    Average vibrational energy      = 0
    Average electronic energy       = 0
    Total energy                    = 3.308099224e-14

Stage 1.0  ExecutionTime = 4.97 s  ClockTime = 5 s  Iteration 989 (0.001 s)

Time = 9.9e-07

    Collisions                      = 2

    Number of DSMC particles        = 10000
    Number of stuck particles       = 2000
    Number of free particles        = 8000
    Average linear kinetic energy   = 4.117705944e-20
    Average rotational energy       = 0
    Average vibrational energy      = 0
    Average electronic energy       = 0
    Total energy                    = 3.294164755e-14

Stage 1.0  ExecutionTime = 4.98 s  ClockTime = 5 s  Iteration 990 (0.01 s)

Time = 9.91e-07

    Collisions                      = 3

    Number of DSMC particles        = 10000
    Number of stuck particles       = 2000
    Number of free particles        = 8000
    Average linear kinetic energy   = 4.108775381e-20
    Average rotational energy       = 0
    Average vibrational energy      = 0
    Average electronic energy       = 0
    Total energy                    = 3.287020305e-14

Stage 1.0  ExecutionTime = 4.98 s  ClockTime = 5 s  Iteration 991 (0.001 s)

Time = 9.92e-07

    Collisions                      = 0

    Number of DSMC particles        = 10000
    Number of stuck particles       = 2000
    Number of free particles        = 8000
    Average linear kinetic energy   = 4.104726734e-20
    Average rotational energy       = 0
    Average vibrational energy      = 0
    Average electronic energy       = 0
    Total energy                    = 3.283781387e-14

Stage 1.0  ExecutionTime = 4.99 s  ClockTime = 5 s  Iteration 992 (0.01 s)

Time = 9.93e-07

    Collisions                      = 2

    Number of DSMC particles        = 10000
    Number of stuck particles       = 2000
    Number of free particles        = 8000
    Average linear kinetic energy   = 4.118389038e-20
    Average rotational energy       = 0
    Average vibrational energy      = 0
    Average electronic energy       = 0
    Total energy                    = 3.29471123e-14

Stage 1.0  ExecutionTime = 4.99 s  ClockTime = 5 s  Iteration 993 (0.001 s)

Time = 9.94e-07

    Collisions                      = 1

    Number of DSMC particles        = 10000
    Number of stuck particles       = 2000
    Number of free particles        = 8000
    Average linear kinetic energy   = 4.113191355e-20
    Average rotational energy       = 0
    Average vibrational energy      = 0
    Average electronic energy       = 0
    Total energy                    = 3.290553084e-14

Stage 1.0  ExecutionTime = 5 s  ClockTime = 5 s  Iteration 994 (0.01 s)

Time = 9.95e-07

    Collisions                      = 0

    Number of DSMC particles        = 10000
    Number of stuck particles       = 1997
    Number of free particles        = 8003
    Average linear kinetic energy   = 4.112610127e-20
    Average rotational energy       = 0
    Average vibrational energy      = 0
    Average electronic energy       = 0
    Total energy                    = 3.291321885e-14

Stage 1.0  ExecutionTime = 5 s  ClockTime = 5 s  Iteration 995 (0.001 s)

Time = 9.96e-07

    Collisions                      = 2

    Number of DSMC particles        = 10000
    Number of stuck particles       = 1995
    Number of free particles        = 8005
    Average linear kinetic energy   = 4.108352221e-20
    Average rotational energy       = 0
    Average vibrational energy      = 0
    Average electronic energy       = 0
    Total energy                    = 3.288735953e-14

Stage 1.0  ExecutionTime = 5.01 s  ClockTime = 5 s  Iteration 996 (0.01 s)

Time = 9.97e-07

    Collisions                      = 2

    Number of DSMC particles        = 10000
    Number of stuck particles       = 2000
    Number of free particles        = 8000
    Average linear kinetic energy   = 4.111608147e-20
    Average rotational energy       = 0
    Average vibrational energy      = 0
    Average electronic energy       = 0
    Total energy                    = 3.289286517e-14

Stage 1.0  ExecutionTime = 5.01 s  ClockTime = 5 s  Iteration 997 (0.001 s)

Time = 9.98e-07

    Collisions                      = 1

    Number of DSMC particles        = 10000
    Number of stuck particles       = 1999
    Number of free particles        = 8001
    Average linear kinetic energy   = 4.126233038e-20
    Average rotational energy       = 0
    Average vibrational energy      = 0
    Average electronic energy       = 0
    Total energy                    = 3.301399054e-14

Stage 1.0  ExecutionTime = 5.02 s  ClockTime = 5 s  Iteration 998 (0.01 s)

Time = 9.99e-07

    Collisions                      = 1

    Number of DSMC particles        = 10000
    Number of stuck particles       = 1999
    Number of free particles        = 8001
    Average linear kinetic energy   = 4.133808015e-20
    Average rotational energy       = 0
    Average vibrational energy      = 0
    Average electronic energy       = 0
    Total energy                    = 3.307459793e-14

Stage 1.0  ExecutionTime = 5.02 s  ClockTime = 5 s  Iteration 999 (0.001 s)

Time = 1e-06

    Collisions                      = 1

    Number of DSMC particles        = 10000
    Number of stuck particles       = 2000
    Number of free particles        = 8000
    Average linear kinetic energy   = 4.12810851e-20
    Average rotational energy       = 0
    Average vibrational energy      = 0
    Average electronic energy       = 0
    Total energy                    = 3.302486808e-14

Stage 1.0  ExecutionTime = 5.09 s  ClockTime = 5 s  Iteration 1000 (0.07 s)

End stage 1

Total Iterations = 1000
End main

