/*---------------------------------------------------------------------------*\
| =========                 |                                                 |
| \\      /  F ield         | OpenFOAM: The Open Source CFD Toolbox           |
|  \\    /   O peration     | Version:  v1706                                 |
|   \\  /    A nd           | Web:      www.OpenFOAM.com                      |
|    \\/     M anipulation  |                                                 |
\*---------------------------------------------------------------------------*/
Build  : v1706
Arch   : "LSB;label=32;scalar=64"
Exec   : dsmcFoam+
Date   : Jan 11 2019
Time   : 10:29:40
Host   : "Galileo"
PID    : 31970
Case   : /home/vincent/OpenFOAM/vincent-v1706/hyStrath/run/hyStrath/dsmcFoam+/gasSurfaceInteraction/absorbingPatch
nProcs : 1
sigFpe : Enabling floating point exception trapping (FOAM_SIGFPE).
fileModificationChecking : Monitoring run-time modified files using timeStampMaster (fileModificationSkew 10)
allowSystemOperations : Allowing user-supplied system call operations

// * * * * * * * * * * * * * * * * * * * * * * * * * * * * * * * * * * * * * //
Create time

Create mesh for time = 0

Selecting dynamicFvMesh dynamicRefineFvMesh

Constructing dsmcCloud 
Selecting the coordinate system model:	dsmcCartesian

Selecting the time-step model:	dsmcConstantTimeStepModel

Constant time-step model:
- time-step [sec]	1e-09

Selecting the porous measurement model:	dsmcNoPorousMediumMeasurements


Creating dsmcControllers

Creating fields: 

Selecting field: dsmcVolFields

TimeData Statistics: 
 measurement option: write
 nSamples: 1, time interval: 1e-09
 nAverages: 1000, time interval: 1e-06
 total no. of sampling steps: 1000
 total no. of averaging Steps: 1


Creating the boundary models: 

Selecting dsmcPatchBoundaryModel dsmcSpecularWallPatch
Selecting dsmcPatchBoundaryModel dsmcAbsorbingDiffuseWallPatch
Selecting BinaryCollisionModel VariableHardSphere

Creating dsmcReactions

WARNING: there are no reactions.

Constructing constant properties for
	Ar
pair addressing: 1(1(-1))
Selecting collisionPartnerSelectionModel noTimeCounter

Initialising the measurement fields

Initialising dsmcVolFields field

Starting time loop

Time = 1e-09

    Collisions                      = 1

    Number of DSMC particles        = 9876
    Number of stuck particles       = 0
    Number of free particles        = 9876
    Average linear kinetic energy   = 4.122451625e-20
    Average rotational energy       = 0
    Average vibrational energy      = 0
    Average electronic energy       = 0
    Total energy                    = 4.071333225e-14

Stage 1.0  ExecutionTime = 0.06 s  ClockTime = 0 s  Iteration 1 (0.06 s)

Time = 2e-09

    Collisions                      = 2

    Number of DSMC particles        = 9741
    Number of stuck particles       = 0
    Number of free particles        = 9741
    Average linear kinetic energy   = 4.112848567e-20
    Average rotational energy       = 0
    Average vibrational energy      = 0
    Average electronic energy       = 0
    Total energy                    = 4.00632579e-14

Stage 1.0  ExecutionTime = 0.06 s  ClockTime = 0 s  Iteration 2 (0.001 s)

Time = 3e-09

    Collisions                      = 2

    Number of DSMC particles        = 9591
    Number of stuck particles       = 0
    Number of free particles        = 9591
    Average linear kinetic energy   = 4.084225996e-20
    Average rotational energy       = 0
    Average vibrational energy      = 0
    Average electronic energy       = 0
    Total energy                    = 3.917181153e-14

Stage 1.0  ExecutionTime = 0.07 s  ClockTime = 0 s  Iteration 3 (0.01 s)

Time = 4e-09

    Collisions                      = 2

    Number of DSMC particles        = 9486
    Number of stuck particles       = 0
    Number of free particles        = 9486
    Average linear kinetic energy   = 4.062177373e-20
    Average rotational energy       = 0
    Average vibrational energy      = 0
    Average electronic energy       = 0
    Total energy                    = 3.853381456e-14

Stage 1.0  ExecutionTime = 0.07 s  ClockTime = 0 s  Iteration 4 (0.001 s)

Time = 5e-09

    Collisions                      = 3

    Number of DSMC particles        = 9373
    Number of stuck particles       = 0
    Number of free particles        = 9373
    Average linear kinetic energy   = 4.030572485e-20
    Average rotational energy       = 0
    Average vibrational energy      = 0
    Average electronic energy       = 0
    Total energy                    = 3.77785559e-14

Stage 1.0  ExecutionTime = 0.08 s  ClockTime = 0 s  Iteration 5 (0.01 s)

Time = 6e-09

    Collisions                      = 1

    Number of DSMC particles        = 9264
    Number of stuck particles       = 0
    Number of free particles        = 9264
    Average linear kinetic energy   = 4.01117669e-20
    Average rotational energy       = 0
    Average vibrational energy      = 0
    Average electronic energy       = 0
    Total energy                    = 3.715954086e-14

Stage 1.0  ExecutionTime = 0.09 s  ClockTime = 0 s  Iteration 6 (0.01 s)

Time = 7e-09

    Collisions                      = 1

    Number of DSMC particles        = 9153
    Number of stuck particles       = 0
    Number of free particles        = 9153
    Average linear kinetic energy   = 3.999272373e-20
    Average rotational energy       = 0
    Average vibrational energy      = 0
    Average electronic energy       = 0
    Total energy                    = 3.660534003e-14

Stage 1.0  ExecutionTime = 0.09 s  ClockTime = 0 s  Iteration 7 (0.001 s)

Time = 8e-09

    Collisions                      = 2

    Number of DSMC particles        = 9027
    Number of stuck particles       = 0
    Number of free particles        = 9027
    Average linear kinetic energy   = 3.986917427e-20
    Average rotational energy       = 0
    Average vibrational energy      = 0
    Average electronic energy       = 0
    Total energy                    = 3.598990361e-14

Stage 1.0  ExecutionTime = 0.1 s  ClockTime = 0 s  Iteration 8 (0.01 s)

Time = 9e-09

    Collisions                      = 2

    Number of DSMC particles        = 8892
    Number of stuck particles       = 0
    Number of free particles        = 8892
    Average linear kinetic energy   = 3.970368455e-20
    Average rotational energy       = 0
    Average vibrational energy      = 0
    Average electronic energy       = 0
    Total energy                    = 3.53045163e-14

Stage 1.0  ExecutionTime = 0.1 s  ClockTime = 1 s  Iteration 9 (0.001 s)

Time = 1e-08

    Collisions                      = 2

    Number of DSMC particles        = 8762
    Number of stuck particles       = 0
    Number of free particles        = 8762
    Average linear kinetic energy   = 3.943362511e-20
    Average rotational energy       = 0
    Average vibrational energy      = 0
    Average electronic energy       = 0
    Total energy                    = 3.455174232e-14

Stage 1.0  ExecutionTime = 0.11 s  ClockTime = 1 s  Iteration 10 (0.01 s)

Time = 1.1e-08

    Collisions                      = 3

    Number of DSMC particles        = 8635
    Number of stuck particles       = 0
    Number of free particles        = 8635
    Average linear kinetic energy   = 3.91893232e-20
    Average rotational energy       = 0
    Average vibrational energy      = 0
    Average electronic energy       = 0
    Total energy                    = 3.383998058e-14

Stage 1.0  ExecutionTime = 0.11 s  ClockTime = 1 s  Iteration 11 (0.001 s)

Time = 1.2e-08

    Collisions                      = 2

    Number of DSMC particles        = 8498
    Number of stuck particles       = 0
    Number of free particles        = 8498
    Average linear kinetic energy   = 3.909511008e-20
    Average rotational energy       = 0
    Average vibrational energy      = 0
    Average electronic energy       = 0
    Total energy                    = 3.322302455e-14

Stage 1.0  ExecutionTime = 0.12 s  ClockTime = 1 s  Iteration 12 (0.01 s)

Time = 1.3e-08

    Collisions                      = 2

    Number of DSMC particles        = 8390
    Number of stuck particles       = 0
    Number of free particles        = 8390
    Average linear kinetic energy   = 3.899014303e-20
    Average rotational energy       = 0
    Average vibrational energy      = 0
    Average electronic energy       = 0
    Total energy                    = 3.271273001e-14

Stage 1.0  ExecutionTime = 0.12 s  ClockTime = 1 s  Iteration 13 (0.001 s)

Time = 1.4e-08

    Collisions                      = 2

    Number of DSMC particles        = 8252
    Number of stuck particles       = 0
    Number of free particles        = 8252
    Average linear kinetic energy   = 3.875034383e-20
    Average rotational energy       = 0
    Average vibrational energy      = 0
    Average electronic energy       = 0
    Total energy                    = 3.197678373e-14

Stage 1.0  ExecutionTime = 0.13 s  ClockTime = 1 s  Iteration 14 (0.01 s)

Time = 1.5e-08

    Collisions                      = 1

    Number of DSMC particles        = 8134
    Number of stuck particles       = 0
    Number of free particles        = 8134
    Average linear kinetic energy   = 3.852384561e-20
    Average rotational energy       = 0
    Average vibrational energy      = 0
    Average electronic energy       = 0
    Total energy                    = 3.133529602e-14

Stage 1.0  ExecutionTime = 0.13 s  ClockTime = 1 s  Iteration 15 (0.001 s)

Time = 1.6e-08

    Collisions                      = 2

    Number of DSMC particles        = 8008
    Number of stuck particles       = 0
    Number of free particles        = 8008
    Average linear kinetic energy   = 3.839361967e-20
    Average rotational energy       = 0
    Average vibrational energy      = 0
    Average electronic energy       = 0
    Total energy                    = 3.074561063e-14

Stage 1.0  ExecutionTime = 0.14 s  ClockTime = 1 s  Iteration 16 (0.01 s)

Time = 1.7e-08

    Collisions                      = 1

    Number of DSMC particles        = 7879
    Number of stuck particles       = 0
    Number of free particles        = 7879
    Average linear kinetic energy   = 3.818135473e-20
    Average rotational energy       = 0
    Average vibrational energy      = 0
    Average electronic energy       = 0
    Total energy                    = 3.00830894e-14

Stage 1.0  ExecutionTime = 0.14 s  ClockTime = 1 s  Iteration 17 (0.001 s)

Time = 1.8e-08

    Collisions                      = 1

    Number of DSMC particles        = 7765
    Number of stuck particles       = 0
    Number of free particles        = 7765
    Average linear kinetic energy   = 3.807019905e-20
    Average rotational energy       = 0
    Average vibrational energy      = 0
    Average electronic energy       = 0
    Total energy                    = 2.956150956e-14

Stage 1.0  ExecutionTime = 0.15 s  ClockTime = 1 s  Iteration 18 (0.01 s)

Time = 1.9e-08

    Collisions                      = 1

    Number of DSMC particles        = 7651
    Number of stuck particles       = 0
    Number of free particles        = 7651
    Average linear kinetic energy   = 3.80122016e-20
    Average rotational energy       = 0
    Average vibrational energy      = 0
    Average electronic energy       = 0
    Total energy                    = 2.908313544e-14

Stage 1.0  ExecutionTime = 0.15 s  ClockTime = 1 s  Iteration 19 (0.001 s)

Time = 2e-08

    Collisions                      = 1

    Number of DSMC particles        = 7537
    Number of stuck particles       = 0
    Number of free particles        = 7537
    Average linear kinetic energy   = 3.789659982e-20
    Average rotational energy       = 0
    Average vibrational energy      = 0
    Average electronic energy       = 0
    Total energy                    = 2.856266729e-14

Stage 1.0  ExecutionTime = 0.16 s  ClockTime = 1 s  Iteration 20 (0.01 s)

Time = 2.1e-08

    Collisions                      = 1

    Number of DSMC particles        = 7428
    Number of stuck particles       = 0
    Number of free particles        = 7428
    Average linear kinetic energy   = 3.778753052e-20
    Average rotational energy       = 0
    Average vibrational energy      = 0
    Average electronic energy       = 0
    Total energy                    = 2.806857767e-14

Stage 1.0  ExecutionTime = 0.16 s  ClockTime = 1 s  Iteration 21 (0.001 s)

Time = 2.2e-08

    Collisions                      = 1

    Number of DSMC particles        = 7331
    Number of stuck particles       = 0
    Number of free particles        = 7331
    Average linear kinetic energy   = 3.772537081e-20
    Average rotational energy       = 0
    Average vibrational energy      = 0
    Average electronic energy       = 0
    Total energy                    = 2.765646934e-14

Stage 1.0  ExecutionTime = 0.17 s  ClockTime = 1 s  Iteration 22 (0.01 s)

Time = 2.3e-08

    Collisions                      = 2

    Number of DSMC particles        = 7228
    Number of stuck particles       = 0
    Number of free particles        = 7228
    Average linear kinetic energy   = 3.757196587e-20
    Average rotational energy       = 0
    Average vibrational energy      = 0
    Average electronic energy       = 0
    Total energy                    = 2.715701693e-14

Stage 1.0  ExecutionTime = 0.17 s  ClockTime = 1 s  Iteration 23 (0.001 s)

Time = 2.4e-08

    Collisions                      = 2

    Number of DSMC particles        = 7124
    Number of stuck particles       = 0
    Number of free particles        = 7124
    Average linear kinetic energy   = 3.733828986e-20
    Average rotational energy       = 0
    Average vibrational energy      = 0
    Average electronic energy       = 0
    Total energy                    = 2.65997977e-14

Stage 1.0  ExecutionTime = 0.17 s  ClockTime = 1 s  Iteration 24 (0.001 s)

Time = 2.5e-08

    Collisions                      = 1

    Number of DSMC particles        = 7038
    Number of stuck particles       = 0
    Number of free particles        = 7038
    Average linear kinetic energy   = 3.721477845e-20
    Average rotational energy       = 0
    Average vibrational energy      = 0
    Average electronic energy       = 0
    Total energy                    = 2.619176107e-14

Stage 1.0  ExecutionTime = 0.18 s  ClockTime = 1 s  Iteration 25 (0.01 s)

Time = 2.6e-08

    Collisions                      = 0

    Number of DSMC particles        = 6930
    Number of stuck particles       = 0
    Number of free particles        = 6930
    Average linear kinetic energy   = 3.710247284e-20
    Average rotational energy       = 0
    Average vibrational energy      = 0
    Average electronic energy       = 0
    Total energy                    = 2.571201368e-14

Stage 1.0  ExecutionTime = 0.18 s  ClockTime = 1 s  Iteration 26 (0.001 s)

Time = 2.7e-08

    Collisions                      = 1

    Number of DSMC particles        = 6836
    Number of stuck particles       = 0
    Number of free particles        = 6836
    Average linear kinetic energy   = 3.698437273e-20
    Average rotational energy       = 0
    Average vibrational energy      = 0
    Average electronic energy       = 0
    Total energy                    = 2.52825172e-14

Stage 1.0  ExecutionTime = 0.19 s  ClockTime = 1 s  Iteration 27 (0.01 s)

Time = 2.8e-08

    Collisions                      = 0

    Number of DSMC particles        = 6737
    Number of stuck particles       = 0
    Number of free particles        = 6737
    Average linear kinetic energy   = 3.707283978e-20
    Average rotational energy       = 0
    Average vibrational energy      = 0
    Average electronic energy       = 0
    Total energy                    = 2.497597216e-14

Stage 1.0  ExecutionTime = 0.19 s  ClockTime = 1 s  Iteration 28 (0.001 s)

Time = 2.9e-08

    Collisions                      = 1

    Number of DSMC particles        = 6652
    Number of stuck particles       = 0
    Number of free particles        = 6652
    Average linear kinetic energy   = 3.690055587e-20
    Average rotational energy       = 0
    Average vibrational energy      = 0
    Average electronic energy       = 0
    Total energy                    = 2.454624976e-14

Stage 1.0  ExecutionTime = 0.19 s  ClockTime = 1 s  Iteration 29 (0.001 s)

Time = 3e-08

    Collisions                      = 0

    Number of DSMC particles        = 6563
    Number of stuck particles       = 0
    Number of free particles        = 6563
    Average linear kinetic energy   = 3.68433748e-20
    Average rotational energy       = 0
    Average vibrational energy      = 0
    Average electronic energy       = 0
    Total energy                    = 2.418030688e-14

Stage 1.0  ExecutionTime = 0.2 s  ClockTime = 1 s  Iteration 30 (0.01 s)

Time = 3.1e-08

    Collisions                      = 1

    Number of DSMC particles        = 6486
    Number of stuck particles       = 0
    Number of free particles        = 6486
    Average linear kinetic energy   = 3.693470978e-20
    Average rotational energy       = 0
    Average vibrational energy      = 0
    Average electronic energy       = 0
    Total energy                    = 2.395585277e-14

Stage 1.0  ExecutionTime = 0.2 s  ClockTime = 1 s  Iteration 31 (0.001 s)

Time = 3.2e-08

    Collisions                      = 1

    Number of DSMC particles        = 6398
    Number of stuck particles       = 0
    Number of free particles        = 6398
    Average linear kinetic energy   = 3.681786951e-20
    Average rotational energy       = 0
    Average vibrational energy      = 0
    Average electronic energy       = 0
    Total energy                    = 2.355607291e-14

Stage 1.0  ExecutionTime = 0.21 s  ClockTime = 1 s  Iteration 32 (0.01 s)

Time = 3.3e-08

    Collisions                      = 1

    Number of DSMC particles        = 6308
    Number of stuck particles       = 0
    Number of free particles        = 6308
    Average linear kinetic energy   = 3.674009192e-20
    Average rotational energy       = 0
    Average vibrational energy      = 0
    Average electronic energy       = 0
    Total energy                    = 2.317564998e-14

Stage 1.0  ExecutionTime = 0.21 s  ClockTime = 1 s  Iteration 33 (0.001 s)

Time = 3.4e-08

    Collisions                      = 1

    Number of DSMC particles        = 6230
    Number of stuck particles       = 0
    Number of free particles        = 6230
    Average linear kinetic energy   = 3.678607676e-20
    Average rotational energy       = 0
    Average vibrational energy      = 0
    Average electronic energy       = 0
    Total energy                    = 2.291772582e-14

Stage 1.0  ExecutionTime = 0.21 s  ClockTime = 1 s  Iteration 34 (0.001 s)

Time = 3.5e-08

    Collisions                      = 2

    Number of DSMC particles        = 6132
    Number of stuck particles       = 0
    Number of free particles        = 6132
    Average linear kinetic energy   = 3.657047132e-20
    Average rotational energy       = 0
    Average vibrational energy      = 0
    Average electronic energy       = 0
    Total energy                    = 2.242501302e-14

Stage 1.0  ExecutionTime = 0.22 s  ClockTime = 1 s  Iteration 35 (0.01 s)

Time = 3.6e-08

    Collisions                      = 1

    Number of DSMC particles        = 6055
    Number of stuck particles       = 0
    Number of free particles        = 6055
    Average linear kinetic energy   = 3.659688646e-20
    Average rotational energy       = 0
    Average vibrational energy      = 0
    Average electronic energy       = 0
    Total energy                    = 2.215941475e-14

Stage 1.0  ExecutionTime = 0.22 s  ClockTime = 1 s  Iteration 36 (0.001 s)

Time = 3.7e-08

    Collisions                      = 0

    Number of DSMC particles        = 5965
    Number of stuck particles       = 0
    Number of free particles        = 5965
    Average linear kinetic energy   = 3.65604651e-20
    Average rotational energy       = 0
    Average vibrational energy      = 0
    Average electronic energy       = 0
    Total energy                    = 2.180831743e-14

Stage 1.0  ExecutionTime = 0.23 s  ClockTime = 1 s  Iteration 37 (0.01 s)

Time = 3.8e-08

    Collisions                      = 0

    Number of DSMC particles        = 5893
    Number of stuck particles       = 0
    Number of free particles        = 5893
    Average linear kinetic energy   = 3.658066749e-20
    Average rotational energy       = 0
    Average vibrational energy      = 0
    Average electronic energy       = 0
    Total energy                    = 2.155698735e-14

Stage 1.0  ExecutionTime = 0.23 s  ClockTime = 1 s  Iteration 38 (0.001 s)

Time = 3.9e-08

    Collisions                      = 0

    Number of DSMC particles        = 5806
    Number of stuck particles       = 0
    Number of free particles        = 5806
    Average linear kinetic energy   = 3.644011602e-20
    Average rotational energy       = 0
    Average vibrational energy      = 0
    Average electronic energy       = 0
    Total energy                    = 2.115713136e-14

Stage 1.0  ExecutionTime = 0.23 s  ClockTime = 1 s  Iteration 39 (0.001 s)

Time = 4e-08

    Collisions                      = 1

    Number of DSMC particles        = 5744
    Number of stuck particles       = 0
    Number of free particles        = 5744
    Average linear kinetic energy   = 3.651152347e-20
    Average rotational energy       = 0
    Average vibrational energy      = 0
    Average electronic energy       = 0
    Total energy                    = 2.097221908e-14

Stage 1.0  ExecutionTime = 0.24 s  ClockTime = 1 s  Iteration 40 (0.01 s)

Time = 4.1e-08

    Collisions                      = 1

    Number of DSMC particles        = 5662
    Number of stuck particles       = 0
    Number of free particles        = 5662
    Average linear kinetic energy   = 3.649774545e-20
    Average rotational energy       = 0
    Average vibrational energy      = 0
    Average electronic energy       = 0
    Total energy                    = 2.066502348e-14

Stage 1.0  ExecutionTime = 0.24 s  ClockTime = 1 s  Iteration 41 (0.001 s)

Time = 4.2e-08

    Collisions                      = 0

    Number of DSMC particles        = 5588
    Number of stuck particles       = 0
    Number of free particles        = 5588
    Average linear kinetic energy   = 3.661625833e-20
    Average rotational energy       = 0
    Average vibrational energy      = 0
    Average electronic energy       = 0
    Total energy                    = 2.046116515e-14

Stage 1.0  ExecutionTime = 0.24 s  ClockTime = 1 s  Iteration 42 (0.001 s)

Time = 4.3e-08

    Collisions                      = 1

    Number of DSMC particles        = 5508
    Number of stuck particles       = 0
    Number of free particles        = 5508
    Average linear kinetic energy   = 3.64970652e-20
    Average rotational energy       = 0
    Average vibrational energy      = 0
    Average electronic energy       = 0
    Total energy                    = 2.010258351e-14

Stage 1.0  ExecutionTime = 0.25 s  ClockTime = 1 s  Iteration 43 (0.01 s)

Time = 4.4e-08

    Collisions                      = 1

    Number of DSMC particles        = 5440
    Number of stuck particles       = 0
    Number of free particles        = 5440
    Average linear kinetic energy   = 3.656934976e-20
    Average rotational energy       = 0
    Average vibrational energy      = 0
    Average electronic energy       = 0
    Total energy                    = 1.989372627e-14

Stage 1.0  ExecutionTime = 0.25 s  ClockTime = 1 s  Iteration 44 (0.001 s)

Time = 4.5e-08

    Collisions                      = 1

    Number of DSMC particles        = 5367
    Number of stuck particles       = 0
    Number of free particles        = 5367
    Average linear kinetic energy   = 3.647471888e-20
    Average rotational energy       = 0
    Average vibrational energy      = 0
    Average electronic energy       = 0
    Total energy                    = 1.957598162e-14

Stage 1.0  ExecutionTime = 0.25 s  ClockTime = 1 s  Iteration 45 (0.001 s)

Time = 4.6e-08

    Collisions                      = 1

    Number of DSMC particles        = 5315
    Number of stuck particles       = 0
    Number of free particles        = 5315
    Average linear kinetic energy   = 3.650968782e-20
    Average rotational energy       = 0
    Average vibrational energy      = 0
    Average electronic energy       = 0
    Total energy                    = 1.940489908e-14

Stage 1.0  ExecutionTime = 0.26 s  ClockTime = 1 s  Iteration 46 (0.01 s)

Time = 4.7e-08

    Collisions                      = 1

    Number of DSMC particles        = 5236
    Number of stuck particles       = 0
    Number of free particles        = 5236
    Average linear kinetic energy   = 3.645320218e-20
    Average rotational energy       = 0
    Average vibrational energy      = 0
    Average electronic energy       = 0
    Total energy                    = 1.908689666e-14

Stage 1.0  ExecutionTime = 0.26 s  ClockTime = 1 s  Iteration 47 (0.001 s)

Time = 4.8e-08

    Collisions                      = 0

    Number of DSMC particles        = 5190
    Number of stuck particles       = 0
    Number of free particles        = 5190
    Average linear kinetic energy   = 3.66604726e-20
    Average rotational energy       = 0
    Average vibrational energy      = 0
    Average electronic energy       = 0
    Total energy                    = 1.902678528e-14

Stage 1.0  ExecutionTime = 0.26 s  ClockTime = 1 s  Iteration 48 (0.001 s)

Time = 4.9e-08

    Collisions                      = 1

    Number of DSMC particles        = 5126
    Number of stuck particles       = 0
    Number of free particles        = 5126
    Average linear kinetic energy   = 3.669167608e-20
    Average rotational energy       = 0
    Average vibrational energy      = 0
    Average electronic energy       = 0
    Total energy                    = 1.880815316e-14

Stage 1.0  ExecutionTime = 0.26 s  ClockTime = 1 s  Iteration 49 (0.001 s)

Time = 5e-08

    Collisions                      = 0

    Number of DSMC particles        = 5054
    Number of stuck particles       = 0
    Number of free particles        = 5054
    Average linear kinetic energy   = 3.686727242e-20
    Average rotational energy       = 0
    Average vibrational energy      = 0
    Average electronic energy       = 0
    Total energy                    = 1.863271948e-14

Stage 1.0  ExecutionTime = 0.27 s  ClockTime = 1 s  Iteration 50 (0.01 s)

Time = 5.1e-08

    Collisions                      = 0

    Number of DSMC particles        = 4986
    Number of stuck particles       = 0
    Number of free particles        = 4986
    Average linear kinetic energy   = 3.692348773e-20
    Average rotational energy       = 0
    Average vibrational energy      = 0
    Average electronic energy       = 0
    Total energy                    = 1.841005098e-14

Stage 1.0  ExecutionTime = 0.27 s  ClockTime = 1 s  Iteration 51 (0.001 s)

Time = 5.2e-08

    Collisions                      = 1

    Number of DSMC particles        = 4920
    Number of stuck particles       = 0
    Number of free particles        = 4920
    Average linear kinetic energy   = 3.679031613e-20
    Average rotational energy       = 0
    Average vibrational energy      = 0
    Average electronic energy       = 0
    Total energy                    = 1.810083554e-14

Stage 1.0  ExecutionTime = 0.27 s  ClockTime = 1 s  Iteration 52 (0.001 s)

Time = 5.3e-08

    No collisions
    Number of DSMC particles        = 4854
    Number of stuck particles       = 0
    Number of free particles        = 4854
    Average linear kinetic energy   = 3.690285607e-20
    Average rotational energy       = 0
    Average vibrational energy      = 0
    Average electronic energy       = 0
    Total energy                    = 1.791264634e-14

Stage 1.0  ExecutionTime = 0.28 s  ClockTime = 1 s  Iteration 53 (0.01 s)

Time = 5.4e-08

    Collisions                      = 1

    Number of DSMC particles        = 4799
    Number of stuck particles       = 0
    Number of free particles        = 4799
    Average linear kinetic energy   = 3.690001398e-20
    Average rotational energy       = 0
    Average vibrational energy      = 0
    Average electronic energy       = 0
    Total energy                    = 1.770831671e-14

Stage 1.0  ExecutionTime = 0.28 s  ClockTime = 1 s  Iteration 54 (0.001 s)

Time = 5.5e-08

    Collisions                      = 1

    Number of DSMC particles        = 4732
    Number of stuck particles       = 0
    Number of free particles        = 4732
    Average linear kinetic energy   = 3.680328191e-20
    Average rotational energy       = 0
    Average vibrational energy      = 0
    Average electronic energy       = 0
    Total energy                    = 1.7415313e-14

Stage 1.0  ExecutionTime = 0.28 s  ClockTime = 1 s  Iteration 55 (0.001 s)

Time = 5.6e-08

    Collisions                      = 0

    Number of DSMC particles        = 4667
    Number of stuck particles       = 0
    Number of free particles        = 4667
    Average linear kinetic energy   = 3.690759106e-20
    Average rotational energy       = 0
    Average vibrational energy      = 0
    Average electronic energy       = 0
    Total energy                    = 1.722477275e-14

Stage 1.0  ExecutionTime = 0.28 s  ClockTime = 1 s  Iteration 56 (0.001 s)

Time = 5.7e-08

    No collisions
    Number of DSMC particles        = 4608
    Number of stuck particles       = 0
    Number of free particles        = 4608
    Average linear kinetic energy   = 3.67844203e-20
    Average rotational energy       = 0
    Average vibrational energy      = 0
    Average electronic energy       = 0
    Total energy                    = 1.695026088e-14

Stage 1.0  ExecutionTime = 0.29 s  ClockTime = 1 s  Iteration 57 (0.01 s)

Time = 5.8e-08

    Collisions                      = 1

    Number of DSMC particles        = 4564
    Number of stuck particles       = 0
    Number of free particles        = 4564
    Average linear kinetic energy   = 3.672331157e-20
    Average rotational energy       = 0
    Average vibrational energy      = 0
    Average electronic energy       = 0
    Total energy                    = 1.67605194e-14

Stage 1.0  ExecutionTime = 0.29 s  ClockTime = 1 s  Iteration 58 (0.001 s)

Time = 5.9e-08

    Collisions                      = 1

    Number of DSMC particles        = 4508
    Number of stuck particles       = 0
    Number of free particles        = 4508
    Average linear kinetic energy   = 3.657795543e-20
    Average rotational energy       = 0
    Average vibrational energy      = 0
    Average electronic energy       = 0
    Total energy                    = 1.648934231e-14

Stage 1.0  ExecutionTime = 0.29 s  ClockTime = 1 s  Iteration 59 (0.001 s)

Time = 6e-08

    No collisions
    Number of DSMC particles        = 4450
    Number of stuck particles       = 0
    Number of free particles        = 4450
    Average linear kinetic energy   = 3.647790212e-20
    Average rotational energy       = 0
    Average vibrational energy      = 0
    Average electronic energy       = 0
    Total energy                    = 1.623266645e-14

Stage 1.0  ExecutionTime = 0.3 s  ClockTime = 1 s  Iteration 60 (0.01 s)

Time = 6.1e-08

    Collisions                      = 1

    Number of DSMC particles        = 4392
    Number of stuck particles       = 0
    Number of free particles        = 4392
    Average linear kinetic energy   = 3.642429987e-20
    Average rotational energy       = 0
    Average vibrational energy      = 0
    Average electronic energy       = 0
    Total energy                    = 1.59975525e-14

Stage 1.0  ExecutionTime = 0.3 s  ClockTime = 1 s  Iteration 61 (0.001 s)

Time = 6.2e-08

    Collisions                      = 1

    Number of DSMC particles        = 4344
    Number of stuck particles       = 0
    Number of free particles        = 4344
    Average linear kinetic energy   = 3.607374113e-20
    Average rotational energy       = 0
    Average vibrational energy      = 0
    Average electronic energy       = 0
    Total energy                    = 1.567043315e-14

Stage 1.0  ExecutionTime = 0.3 s  ClockTime = 1 s  Iteration 62 (0.001 s)

Time = 6.3e-08

    No collisions
    Number of DSMC particles        = 4300
    Number of stuck particles       = 0
    Number of free particles        = 4300
    Average linear kinetic energy   = 3.603464312e-20
    Average rotational energy       = 0
    Average vibrational energy      = 0
    Average electronic energy       = 0
    Total energy                    = 1.549489654e-14

Stage 1.0  ExecutionTime = 0.3 s  ClockTime = 1 s  Iteration 63 (0.001 s)

Time = 6.4e-08

    Collisions                      = 0

    Number of DSMC particles        = 4243
    Number of stuck particles       = 0
    Number of free particles        = 4243
    Average linear kinetic energy   = 3.576263546e-20
    Average rotational energy       = 0
    Average vibrational energy      = 0
    Average electronic energy       = 0
    Total energy                    = 1.517408623e-14

Stage 1.0  ExecutionTime = 0.31 s  ClockTime = 1 s  Iteration 64 (0.01 s)

Time = 6.5e-08

    No collisions
    Number of DSMC particles        = 4206
    Number of stuck particles       = 0
    Number of free particles        = 4206
    Average linear kinetic energy   = 3.560700039e-20
    Average rotational energy       = 0
    Average vibrational energy      = 0
    Average electronic energy       = 0
    Total energy                    = 1.497630436e-14

Stage 1.0  ExecutionTime = 0.31 s  ClockTime = 1 s  Iteration 65 (0.001 s)

Time = 6.6e-08

    Collisions                      = 1

    Number of DSMC particles        = 4143
    Number of stuck particles       = 0
    Number of free particles        = 4143
    Average linear kinetic energy   = 3.569741914e-20
    Average rotational energy       = 0
    Average vibrational energy      = 0
    Average electronic energy       = 0
    Total energy                    = 1.478944075e-14

Stage 1.0  ExecutionTime = 0.31 s  ClockTime = 1 s  Iteration 66 (0.001 s)

Time = 6.7e-08

    No collisions
    Number of DSMC particles        = 4085
    Number of stuck particles       = 0
    Number of free particles        = 4085
    Average linear kinetic energy   = 3.57565068e-20
    Average rotational energy       = 0
    Average vibrational energy      = 0
    Average electronic energy       = 0
    Total energy                    = 1.460653303e-14

Stage 1.0  ExecutionTime = 0.31 s  ClockTime = 1 s  Iteration 67 (0.001 s)

Time = 6.8e-08

    Collisions                      = 0

    Number of DSMC particles        = 4036
    Number of stuck particles       = 0
    Number of free particles        = 4036
    Average linear kinetic energy   = 3.573018015e-20
    Average rotational energy       = 0
    Average vibrational energy      = 0
    Average electronic energy       = 0
    Total energy                    = 1.442070071e-14

Stage 1.0  ExecutionTime = 0.32 s  ClockTime = 1 s  Iteration 68 (0.01 s)

Time = 6.9e-08

    Collisions                      = 1

    Number of DSMC particles        = 3995
    Number of stuck particles       = 0
    Number of free particles        = 3995
    Average linear kinetic energy   = 3.556711519e-20
    Average rotational energy       = 0
    Average vibrational energy      = 0
    Average electronic energy       = 0
    Total energy                    = 1.420906252e-14

Stage 1.0  ExecutionTime = 0.32 s  ClockTime = 1 s  Iteration 69 (0.001 s)

Time = 7e-08

    No collisions
    Number of DSMC particles        = 3942
    Number of stuck particles       = 0
    Number of free particles        = 3942
    Average linear kinetic energy   = 3.554339186e-20
    Average rotational energy       = 0
    Average vibrational energy      = 0
    Average electronic energy       = 0
    Total energy                    = 1.401120507e-14

Stage 1.0  ExecutionTime = 0.32 s  ClockTime = 1 s  Iteration 70 (0.001 s)

Time = 7.1e-08

    Collisions                      = 1

    Number of DSMC particles        = 3892
    Number of stuck particles       = 0
    Number of free particles        = 3892
    Average linear kinetic energy   = 3.55690162e-20
    Average rotational energy       = 0
    Average vibrational energy      = 0
    Average electronic energy       = 0
    Total energy                    = 1.38434611e-14

Stage 1.0  ExecutionTime = 0.32 s  ClockTime = 1 s  Iteration 71 (0.001 s)

Time = 7.2e-08

    No collisions
    Number of DSMC particles        = 3833
    Number of stuck particles       = 0
    Number of free particles        = 3833
    Average linear kinetic energy   = 3.548004937e-20
    Average rotational energy       = 0
    Average vibrational energy      = 0
    Average electronic energy       = 0
    Total energy                    = 1.359950293e-14

Stage 1.0  ExecutionTime = 0.33 s  ClockTime = 1 s  Iteration 72 (0.01 s)

Time = 7.3e-08

    No collisions
    Number of DSMC particles        = 3790
    Number of stuck particles       = 0
    Number of free particles        = 3790
    Average linear kinetic energy   = 3.547618171e-20
    Average rotational energy       = 0
    Average vibrational energy      = 0
    Average electronic energy       = 0
    Total energy                    = 1.344547287e-14

Stage 1.0  ExecutionTime = 0.33 s  ClockTime = 1 s  Iteration 73 (0.001 s)

Time = 7.4e-08

    Collisions                      = 1

    Number of DSMC particles        = 3751
    Number of stuck particles       = 0
    Number of free particles        = 3751
    Average linear kinetic energy   = 3.557361192e-20
    Average rotational energy       = 0
    Average vibrational energy      = 0
    Average electronic energy       = 0
    Total energy                    = 1.334366183e-14

Stage 1.0  ExecutionTime = 0.33 s  ClockTime = 1 s  Iteration 74 (0.001 s)

Time = 7.5e-08

    No collisions
    Number of DSMC particles        = 3716
    Number of stuck particles       = 0
    Number of free particles        = 3716
    Average linear kinetic energy   = 3.533826202e-20
    Average rotational energy       = 0
    Average vibrational energy      = 0
    Average electronic energy       = 0
    Total energy                    = 1.313169817e-14

Stage 1.0  ExecutionTime = 0.34 s  ClockTime = 1 s  Iteration 75 (0.01 s)

Time = 7.6e-08

    Collisions                      = 1

    Number of DSMC particles        = 3675
    Number of stuck particles       = 0
    Number of free particles        = 3675
    Average linear kinetic energy   = 3.529537422e-20
    Average rotational energy       = 0
    Average vibrational energy      = 0
    Average electronic energy       = 0
    Total energy                    = 1.297105003e-14

Stage 1.0  ExecutionTime = 0.34 s  ClockTime = 1 s  Iteration 76 (0.001 s)

Time = 7.7e-08

    No collisions
    Number of DSMC particles        = 3638
    Number of stuck particles       = 0
    Number of free particles        = 3638
    Average linear kinetic energy   = 3.538156418e-20
    Average rotational energy       = 0
    Average vibrational energy      = 0
    Average electronic energy       = 0
    Total energy                    = 1.287181305e-14

Stage 1.0  ExecutionTime = 0.34 s  ClockTime = 1 s  Iteration 77 (0.001 s)

Time = 7.8e-08

    Collisions                      = 1

    Number of DSMC particles        = 3607
    Number of stuck particles       = 0
    Number of free particles        = 3607
    Average linear kinetic energy   = 3.541189625e-20
    Average rotational energy       = 0
    Average vibrational energy      = 0
    Average electronic energy       = 0
    Total energy                    = 1.277307098e-14

Stage 1.0  ExecutionTime = 0.34 s  ClockTime = 1 s  Iteration 78 (0.001 s)

Time = 7.9e-08

    No collisions
    Number of DSMC particles        = 3572
    Number of stuck particles       = 0
    Number of free particles        = 3572
    Average linear kinetic energy   = 3.567230435e-20
    Average rotational energy       = 0
    Average vibrational energy      = 0
    Average electronic energy       = 0
    Total energy                    = 1.274214711e-14

Stage 1.0  ExecutionTime = 0.35 s  ClockTime = 1 s  Iteration 79 (0.01 s)

Time = 8e-08

    Collisions                      = 0

    Number of DSMC particles        = 3534
    Number of stuck particles       = 0
    Number of free particles        = 3534
    Average linear kinetic energy   = 3.56612125e-20
    Average rotational energy       = 0
    Average vibrational energy      = 0
    Average electronic energy       = 0
    Total energy                    = 1.26026725e-14

Stage 1.0  ExecutionTime = 0.35 s  ClockTime = 1 s  Iteration 80 (0.001 s)

Time = 8.1e-08

    No collisions
    Number of DSMC particles        = 3494
    Number of stuck particles       = 0
    Number of free particles        = 3494
    Average linear kinetic energy   = 3.555689836e-20
    Average rotational energy       = 0
    Average vibrational energy      = 0
    Average electronic energy       = 0
    Total energy                    = 1.242358029e-14

Stage 1.0  ExecutionTime = 0.35 s  ClockTime = 1 s  Iteration 81 (0.001 s)

Time = 8.2e-08

    No collisions
    Number of DSMC particles        = 3452
    Number of stuck particles       = 0
    Number of free particles        = 3452
    Average linear kinetic energy   = 3.555324848e-20
    Average rotational energy       = 0
    Average vibrational energy      = 0
    Average electronic energy       = 0
    Total energy                    = 1.227298138e-14

Stage 1.0  ExecutionTime = 0.35 s  ClockTime = 1 s  Iteration 82 (0.001 s)

Time = 8.3e-08

    Collisions                      = 1

    Number of DSMC particles        = 3409
    Number of stuck particles       = 0
    Number of free particles        = 3409
    Average linear kinetic energy   = 3.544704564e-20
    Average rotational energy       = 0
    Average vibrational energy      = 0
    Average electronic energy       = 0
    Total energy                    = 1.208389786e-14

Stage 1.0  ExecutionTime = 0.35 s  ClockTime = 1 s  Iteration 83 (0.001 s)

Time = 8.4e-08

    No collisions
    Number of DSMC particles        = 3374
    Number of stuck particles       = 0
    Number of free particles        = 3374
    Average linear kinetic energy   = 3.539501082e-20
    Average rotational energy       = 0
    Average vibrational energy      = 0
    Average electronic energy       = 0
    Total energy                    = 1.194227665e-14

Stage 1.0  ExecutionTime = 0.36 s  ClockTime = 1 s  Iteration 84 (0.01 s)

Time = 8.5e-08

    Collisions                      = 1

    Number of DSMC particles        = 3330
    Number of stuck particles       = 0
    Number of free particles        = 3330
    Average linear kinetic energy   = 3.524804316e-20
    Average rotational energy       = 0
    Average vibrational energy      = 0
    Average electronic energy       = 0
    Total energy                    = 1.173759837e-14

Stage 1.0  ExecutionTime = 0.36 s  ClockTime = 1 s  Iteration 85 (0.001 s)

Time = 8.6e-08

    No collisions
    Number of DSMC particles        = 3288
    Number of stuck particles       = 0
    Number of free particles        = 3288
    Average linear kinetic energy   = 3.513360254e-20
    Average rotational energy       = 0
    Average vibrational energy      = 0
    Average electronic energy       = 0
    Total energy                    = 1.155192851e-14

Stage 1.0  ExecutionTime = 0.36 s  ClockTime = 1 s  Iteration 86 (0.001 s)

Time = 8.7e-08

    No collisions
    Number of DSMC particles        = 3262
    Number of stuck particles       = 0
    Number of free particles        = 3262
    Average linear kinetic energy   = 3.518441854e-20
    Average rotational energy       = 0
    Average vibrational energy      = 0
    Average electronic energy       = 0
    Total energy                    = 1.147715733e-14

Stage 1.0  ExecutionTime = 0.36 s  ClockTime = 1 s  Iteration 87 (0.001 s)

Time = 8.8e-08

    Collisions                      = 0

    Number of DSMC particles        = 3223
    Number of stuck particles       = 0
    Number of free particles        = 3223
    Average linear kinetic energy   = 3.516000008e-20
    Average rotational energy       = 0
    Average vibrational energy      = 0
    Average electronic energy       = 0
    Total energy                    = 1.133206803e-14

Stage 1.0  ExecutionTime = 0.37 s  ClockTime = 1 s  Iteration 88 (0.01 s)

Time = 8.9e-08

    No collisions
    Number of DSMC particles        = 3191
    Number of stuck particles       = 0
    Number of free particles        = 3191
    Average linear kinetic energy   = 3.538548643e-20
    Average rotational energy       = 0
    Average vibrational energy      = 0
    Average electronic energy       = 0
    Total energy                    = 1.129150872e-14

Stage 1.0  ExecutionTime = 0.37 s  ClockTime = 1 s  Iteration 89 (0.001 s)

Time = 9e-08

    No collisions
    Number of DSMC particles        = 3156
    Number of stuck particles       = 0
    Number of free particles        = 3156
    Average linear kinetic energy   = 3.542209172e-20
    Average rotational energy       = 0
    Average vibrational energy      = 0
    Average electronic energy       = 0
    Total energy                    = 1.117921215e-14

Stage 1.0  ExecutionTime = 0.37 s  ClockTime = 1 s  Iteration 90 (0.001 s)

Time = 9.1e-08

    Collisions                      = 1

    Number of DSMC particles        = 3120
    Number of stuck particles       = 0
    Number of free particles        = 3120
    Average linear kinetic energy   = 3.552002086e-20
    Average rotational energy       = 0
    Average vibrational energy      = 0
    Average electronic energy       = 0
    Total energy                    = 1.108224651e-14

Stage 1.0  ExecutionTime = 0.37 s  ClockTime = 1 s  Iteration 91 (0.001 s)

Time = 9.2e-08

    No collisions
    Number of DSMC particles        = 3086
    Number of stuck particles       = 0
    Number of free particles        = 3086
    Average linear kinetic energy   = 3.545608509e-20
    Average rotational energy       = 0
    Average vibrational energy      = 0
    Average electronic energy       = 0
    Total energy                    = 1.094174786e-14

Stage 1.0  ExecutionTime = 0.37 s  ClockTime = 1 s  Iteration 92 (0.001 s)

Time = 9.3e-08

    No collisions
    Number of DSMC particles        = 3055
    Number of stuck particles       = 0
    Number of free particles        = 3055
    Average linear kinetic energy   = 3.54174932e-20
    Average rotational energy       = 0
    Average vibrational energy      = 0
    Average electronic energy       = 0
    Total energy                    = 1.082004417e-14

Stage 1.0  ExecutionTime = 0.37 s  ClockTime = 1 s  Iteration 93 (0.001 s)

Time = 9.4e-08

    No collisions
    Number of DSMC particles        = 3011
    Number of stuck particles       = 0
    Number of free particles        = 3011
    Average linear kinetic energy   = 3.52923972e-20
    Average rotational energy       = 0
    Average vibrational energy      = 0
    Average electronic energy       = 0
    Total energy                    = 1.06265408e-14

Stage 1.0  ExecutionTime = 0.38 s  ClockTime = 1 s  Iteration 94 (0.01 s)

Time = 9.5e-08

    Collisions                      = 0

    Number of DSMC particles        = 2976
    Number of stuck particles       = 0
    Number of free particles        = 2976
    Average linear kinetic energy   = 3.521899037e-20
    Average rotational energy       = 0
    Average vibrational energy      = 0
    Average electronic energy       = 0
    Total energy                    = 1.048117153e-14

Stage 1.0  ExecutionTime = 0.38 s  ClockTime = 1 s  Iteration 95 (0.001 s)

Time = 9.6e-08

    No collisions
    Number of DSMC particles        = 2941
    Number of stuck particles       = 0
    Number of free particles        = 2941
    Average linear kinetic energy   = 3.526240226e-20
    Average rotational energy       = 0
    Average vibrational energy      = 0
    Average electronic energy       = 0
    Total energy                    = 1.03706725e-14

Stage 1.0  ExecutionTime = 0.38 s  ClockTime = 1 s  Iteration 96 (0.001 s)

Time = 9.7e-08

    No collisions
    Number of DSMC particles        = 2908
    Number of stuck particles       = 0
    Number of free particles        = 2908
    Average linear kinetic energy   = 3.515057522e-20
    Average rotational energy       = 0
    Average vibrational energy      = 0
    Average electronic energy       = 0
    Total energy                    = 1.022178727e-14

Stage 1.0  ExecutionTime = 0.38 s  ClockTime = 1 s  Iteration 97 (0.001 s)

Time = 9.8e-08

    Collisions                      = 1

    Number of DSMC particles        = 2874
    Number of stuck particles       = 0
    Number of free particles        = 2874
    Average linear kinetic energy   = 3.492274164e-20
    Average rotational energy       = 0
    Average vibrational energy      = 0
    Average electronic energy       = 0
    Total energy                    = 1.003679595e-14

Stage 1.0  ExecutionTime = 0.38 s  ClockTime = 1 s  Iteration 98 (0.001 s)

Time = 9.9e-08

    No collisions
    Number of DSMC particles        = 2847
    Number of stuck particles       = 0
    Number of free particles        = 2847
    Average linear kinetic energy   = 3.48671533e-20
    Average rotational energy       = 0
    Average vibrational energy      = 0
    Average electronic energy       = 0
    Total energy                    = 9.926678544e-15

Stage 1.0  ExecutionTime = 0.39 s  ClockTime = 1 s  Iteration 99 (0.01 s)

Time = 1e-07

    No collisions
    Number of DSMC particles        = 2818
    Number of stuck particles       = 0
    Number of free particles        = 2818
    Average linear kinetic energy   = 3.480229078e-20
    Average rotational energy       = 0
    Average vibrational energy      = 0
    Average electronic energy       = 0
    Total energy                    = 9.807285541e-15

Stage 1.0  ExecutionTime = 0.39 s  ClockTime = 1 s  Iteration 100 (0.001 s)

Time = 1.01e-07

    No collisions
    Number of DSMC particles        = 2783
    Number of stuck particles       = 0
    Number of free particles        = 2783
    Average linear kinetic energy   = 3.45990558e-20
    Average rotational energy       = 0
    Average vibrational energy      = 0
    Average electronic energy       = 0
    Total energy                    = 9.628917228e-15

Stage 1.0  ExecutionTime = 0.39 s  ClockTime = 1 s  Iteration 101 (0.001 s)

Time = 1.02e-07

    Collisions                      = 0

    Number of DSMC particles        = 2745
    Number of stuck particles       = 0
    Number of free particles        = 2745
    Average linear kinetic energy   = 3.458033119e-20
    Average rotational energy       = 0
    Average vibrational energy      = 0
    Average electronic energy       = 0
    Total energy                    = 9.492300911e-15

Stage 1.0  ExecutionTime = 0.39 s  ClockTime = 1 s  Iteration 102 (0.001 s)

Time = 1.03e-07

    No collisions
    Number of DSMC particles        = 2717
    Number of stuck particles       = 0
    Number of free particles        = 2717
    Average linear kinetic energy   = 3.445539248e-20
    Average rotational energy       = 0
    Average vibrational energy      = 0
    Average electronic energy       = 0
    Total energy                    = 9.361530138e-15

Stage 1.0  ExecutionTime = 0.39 s  ClockTime = 1 s  Iteration 103 (0.001 s)

Time = 1.04e-07

    No collisions
    Number of DSMC particles        = 2698
    Number of stuck particles       = 0
    Number of free particles        = 2698
    Average linear kinetic energy   = 3.440565174e-20
    Average rotational energy       = 0
    Average vibrational energy      = 0
    Average electronic energy       = 0
    Total energy                    = 9.282644839e-15

Stage 1.0  ExecutionTime = 0.4 s  ClockTime = 1 s  Iteration 104 (0.01 s)

Time = 1.05e-07

    No collisions
    Number of DSMC particles        = 2668
    Number of stuck particles       = 0
    Number of free particles        = 2668
    Average linear kinetic energy   = 3.437632268e-20
    Average rotational energy       = 0
    Average vibrational energy      = 0
    Average electronic energy       = 0
    Total energy                    = 9.171602891e-15

Stage 1.0  ExecutionTime = 0.4 s  ClockTime = 1 s  Iteration 105 (0.001 s)

Time = 1.06e-07

    Collisions                      = 1

    Number of DSMC particles        = 2649
    Number of stuck particles       = 0
    Number of free particles        = 2649
    Average linear kinetic energy   = 3.421055077e-20
    Average rotational energy       = 0
    Average vibrational energy      = 0
    Average electronic energy       = 0
    Total energy                    = 9.062374899e-15

Stage 1.0  ExecutionTime = 0.4 s  ClockTime = 1 s  Iteration 106 (0.001 s)

Time = 1.07e-07

    No collisions
    Number of DSMC particles        = 2623
    Number of stuck particles       = 0
    Number of free particles        = 2623
    Average linear kinetic energy   = 3.38957544e-20
    Average rotational energy       = 0
    Average vibrational energy      = 0
    Average electronic energy       = 0
    Total energy                    = 8.89085638e-15

Stage 1.0  ExecutionTime = 0.4 s  ClockTime = 1 s  Iteration 107 (0.001 s)

Time = 1.08e-07

    No collisions
    Number of DSMC particles        = 2595
    Number of stuck particles       = 0
    Number of free particles        = 2595
    Average linear kinetic energy   = 3.396537223e-20
    Average rotational energy       = 0
    Average vibrational energy      = 0
    Average electronic energy       = 0
    Total energy                    = 8.814014092e-15

Stage 1.0  ExecutionTime = 0.4 s  ClockTime = 1 s  Iteration 108 (0.001 s)

Time = 1.09e-07

    No collisions
    Number of DSMC particles        = 2564
    Number of stuck particles       = 0
    Number of free particles        = 2564
    Average linear kinetic energy   = 3.38937217e-20
    Average rotational energy       = 0
    Average vibrational energy      = 0
    Average electronic energy       = 0
    Total energy                    = 8.690350243e-15

Stage 1.0  ExecutionTime = 0.4 s  ClockTime = 1 s  Iteration 109 (0.001 s)

Time = 1.1e-07

    No collisions
    Number of DSMC particles        = 2530
    Number of stuck particles       = 0
    Number of free particles        = 2530
    Average linear kinetic energy   = 3.377353775e-20
    Average rotational energy       = 0
    Average vibrational energy      = 0
    Average electronic energy       = 0
    Total energy                    = 8.544705052e-15

Stage 1.0  ExecutionTime = 0.41 s  ClockTime = 1 s  Iteration 110 (0.01 s)

Time = 1.11e-07

    Collisions                      = 1

    Number of DSMC particles        = 2509
    Number of stuck particles       = 0
    Number of free particles        = 2509
    Average linear kinetic energy   = 3.360035082e-20
    Average rotational energy       = 0
    Average vibrational energy      = 0
    Average electronic energy       = 0
    Total energy                    = 8.43032802e-15

Stage 1.0  ExecutionTime = 0.41 s  ClockTime = 1 s  Iteration 111 (0.001 s)

Time = 1.12e-07

    No collisions
    Number of DSMC particles        = 2490
    Number of stuck particles       = 0
    Number of free particles        = 2490
    Average linear kinetic energy   = 3.368836562e-20
    Average rotational energy       = 0
    Average vibrational energy      = 0
    Average electronic energy       = 0
    Total energy                    = 8.38840304e-15

Stage 1.0  ExecutionTime = 0.41 s  ClockTime = 1 s  Iteration 112 (0.001 s)

Time = 1.13e-07

    No collisions
    Number of DSMC particles        = 2466
    Number of stuck particles       = 0
    Number of free particles        = 2466
    Average linear kinetic energy   = 3.358120102e-20
    Average rotational energy       = 0
    Average vibrational energy      = 0
    Average electronic energy       = 0
    Total energy                    = 8.281124171e-15

Stage 1.0  ExecutionTime = 0.41 s  ClockTime = 1 s  Iteration 113 (0.001 s)

Time = 1.14e-07

    No collisions
    Number of DSMC particles        = 2440
    Number of stuck particles       = 0
    Number of free particles        = 2440
    Average linear kinetic energy   = 3.39474198e-20
    Average rotational energy       = 0
    Average vibrational energy      = 0
    Average electronic energy       = 0
    Total energy                    = 8.283170431e-15

Stage 1.0  ExecutionTime = 0.41 s  ClockTime = 1 s  Iteration 114 (0.001 s)

Time = 1.15e-07

    Collisions                      = 1

    Number of DSMC particles        = 2415
    Number of stuck particles       = 0
    Number of free particles        = 2415
    Average linear kinetic energy   = 3.400369591e-20
    Average rotational energy       = 0
    Average vibrational energy      = 0
    Average electronic energy       = 0
    Total energy                    = 8.211892563e-15

Stage 1.0  ExecutionTime = 0.41 s  ClockTime = 1 s  Iteration 115 (0.001 s)

Time = 1.16e-07

    No collisions
    Number of DSMC particles        = 2389
    Number of stuck particles       = 0
    Number of free particles        = 2389
    Average linear kinetic energy   = 3.409603523e-20
    Average rotational energy       = 0
    Average vibrational energy      = 0
    Average electronic energy       = 0
    Total energy                    = 8.145542816e-15

Stage 1.0  ExecutionTime = 0.41 s  ClockTime = 1 s  Iteration 116 (0.001 s)

Time = 1.17e-07

    No collisions
    Number of DSMC particles        = 2359
    Number of stuck particles       = 0
    Number of free particles        = 2359
    Average linear kinetic energy   = 3.361374836e-20
    Average rotational energy       = 0
    Average vibrational energy      = 0
    Average electronic energy       = 0
    Total energy                    = 7.929483239e-15

Stage 1.0  ExecutionTime = 0.42 s  ClockTime = 1 s  Iteration 117 (0.01 s)

Time = 1.18e-07

    No collisions
    Number of DSMC particles        = 2343
    Number of stuck particles       = 0
    Number of free particles        = 2343
    Average linear kinetic energy   = 3.360810902e-20
    Average rotational energy       = 0
    Average vibrational energy      = 0
    Average electronic energy       = 0
    Total energy                    = 7.874379943e-15

Stage 1.0  ExecutionTime = 0.42 s  ClockTime = 1 s  Iteration 118 (0.001 s)

Time = 1.19e-07

    No collisions
    Number of DSMC particles        = 2321
    Number of stuck particles       = 0
    Number of free particles        = 2321
    Average linear kinetic energy   = 3.36324469e-20
    Average rotational energy       = 0
    Average vibrational energy      = 0
    Average electronic energy       = 0
    Total energy                    = 7.806090925e-15

Stage 1.0  ExecutionTime = 0.42 s  ClockTime = 1 s  Iteration 119 (0.001 s)

Time = 1.2e-07

    No collisions
    Number of DSMC particles        = 2301
    Number of stuck particles       = 0
    Number of free particles        = 2301
    Average linear kinetic energy   = 3.379916896e-20
    Average rotational energy       = 0
    Average vibrational energy      = 0
    Average electronic energy       = 0
    Total energy                    = 7.777188778e-15

Stage 1.0  ExecutionTime = 0.42 s  ClockTime = 1 s  Iteration 120 (0.001 s)

Time = 1.21e-07

    Collisions                      = 0

    Number of DSMC particles        = 2278
    Number of stuck particles       = 0
    Number of free particles        = 2278
    Average linear kinetic energy   = 3.383682085e-20
    Average rotational energy       = 0
    Average vibrational energy      = 0
    Average electronic energy       = 0
    Total energy                    = 7.708027789e-15

Stage 1.0  ExecutionTime = 0.42 s  ClockTime = 1 s  Iteration 121 (0.001 s)

Time = 1.22e-07

    No collisions
    Number of DSMC particles        = 2248
    Number of stuck particles       = 0
    Number of free particles        = 2248
    Average linear kinetic energy   = 3.36439693e-20
    Average rotational energy       = 0
    Average vibrational energy      = 0
    Average electronic energy       = 0
    Total energy                    = 7.563164299e-15

Stage 1.0  ExecutionTime = 0.42 s  ClockTime = 1 s  Iteration 122 (0.001 s)

Time = 1.23e-07

    No collisions
    Number of DSMC particles        = 2226
    Number of stuck particles       = 0
    Number of free particles        = 2226
    Average linear kinetic energy   = 3.366600737e-20
    Average rotational energy       = 0
    Average vibrational energy      = 0
    Average electronic energy       = 0
    Total energy                    = 7.49405324e-15

Stage 1.0  ExecutionTime = 0.42 s  ClockTime = 1 s  Iteration 123 (0.001 s)

Time = 1.24e-07

    No collisions
    Number of DSMC particles        = 2204
    Number of stuck particles       = 0
    Number of free particles        = 2204
    Average linear kinetic energy   = 3.374846832e-20
    Average rotational energy       = 0
    Average vibrational energy      = 0
    Average electronic energy       = 0
    Total energy                    = 7.438162417e-15

Stage 1.0  ExecutionTime = 0.43 s  ClockTime = 1 s  Iteration 124 (0.01 s)

Time = 1.25e-07

    No collisions
    Number of DSMC particles        = 2190
    Number of stuck particles       = 0
    Number of free particles        = 2190
    Average linear kinetic energy   = 3.364432343e-20
    Average rotational energy       = 0
    Average vibrational energy      = 0
    Average electronic energy       = 0
    Total energy                    = 7.368106832e-15

Stage 1.0  ExecutionTime = 0.43 s  ClockTime = 1 s  Iteration 125 (0.001 s)

Time = 1.26e-07

    No collisions
    Number of DSMC particles        = 2171
    Number of stuck particles       = 0
    Number of free particles        = 2171
    Average linear kinetic energy   = 3.380851944e-20
    Average rotational energy       = 0
    Average vibrational energy      = 0
    Average electronic energy       = 0
    Total energy                    = 7.33982957e-15

Stage 1.0  ExecutionTime = 0.43 s  ClockTime = 1 s  Iteration 126 (0.001 s)

Time = 1.27e-07

    Collisions                      = 1

    Number of DSMC particles        = 2147
    Number of stuck particles       = 0
    Number of free particles        = 2147
    Average linear kinetic energy   = 3.391322894e-20
    Average rotational energy       = 0
    Average vibrational energy      = 0
    Average electronic energy       = 0
    Total energy                    = 7.281170252e-15

Stage 1.0  ExecutionTime = 0.43 s  ClockTime = 1 s  Iteration 127 (0.001 s)

Time = 1.28e-07

    No collisions
    Number of DSMC particles        = 2132
    Number of stuck particles       = 0
    Number of free particles        = 2132
    Average linear kinetic energy   = 3.394473569e-20
    Average rotational energy       = 0
    Average vibrational energy      = 0
    Average electronic energy       = 0
    Total energy                    = 7.237017649e-15

Stage 1.0  ExecutionTime = 0.43 s  ClockTime = 1 s  Iteration 128 (0.001 s)

Time = 1.29e-07

    No collisions
    Number of DSMC particles        = 2111
    Number of stuck particles       = 0
    Number of free particles        = 2111
    Average linear kinetic energy   = 3.396546003e-20
    Average rotational energy       = 0
    Average vibrational energy      = 0
    Average electronic energy       = 0
    Total energy                    = 7.170108613e-15

Stage 1.0  ExecutionTime = 0.43 s  ClockTime = 1 s  Iteration 129 (0.001 s)

Time = 1.3e-07

    No collisions
    Number of DSMC particles        = 2091
    Number of stuck particles       = 0
    Number of free particles        = 2091
    Average linear kinetic energy   = 3.39195516e-20
    Average rotational energy       = 0
    Average vibrational energy      = 0
    Average electronic energy       = 0
    Total energy                    = 7.092578239e-15

Stage 1.0  ExecutionTime = 0.43 s  ClockTime = 1 s  Iteration 130 (0.001 s)

Time = 1.31e-07

    No collisions
    Number of DSMC particles        = 2073
    Number of stuck particles       = 0
    Number of free particles        = 2073
    Average linear kinetic energy   = 3.38460452e-20
    Average rotational energy       = 0
    Average vibrational energy      = 0
    Average electronic energy       = 0
    Total energy                    = 7.01628517e-15

Stage 1.0  ExecutionTime = 0.43 s  ClockTime = 1 s  Iteration 131 (0.001 s)

Time = 1.32e-07

    No collisions
    Number of DSMC particles        = 2061
    Number of stuck particles       = 0
    Number of free particles        = 2061
    Average linear kinetic energy   = 3.396742917e-20
    Average rotational energy       = 0
    Average vibrational energy      = 0
    Average electronic energy       = 0
    Total energy                    = 7.000687152e-15

Stage 1.0  ExecutionTime = 0.44 s  ClockTime = 1 s  Iteration 132 (0.01 s)

Time = 1.33e-07

    No collisions
    Number of DSMC particles        = 2047
    Number of stuck particles       = 0
    Number of free particles        = 2047
    Average linear kinetic energy   = 3.395969889e-20
    Average rotational energy       = 0
    Average vibrational energy      = 0
    Average electronic energy       = 0
    Total energy                    = 6.951550362e-15

Stage 1.0  ExecutionTime = 0.44 s  ClockTime = 1 s  Iteration 133 (0.001 s)

Time = 1.34e-07

    Collisions                      = 1

    Number of DSMC particles        = 2019
    Number of stuck particles       = 0
    Number of free particles        = 2019
    Average linear kinetic energy   = 3.379692251e-20
    Average rotational energy       = 0
    Average vibrational energy      = 0
    Average electronic energy       = 0
    Total energy                    = 6.823598654e-15

Stage 1.0  ExecutionTime = 0.44 s  ClockTime = 1 s  Iteration 134 (0.001 s)

Time = 1.35e-07

    No collisions
    Number of DSMC particles        = 1996
    Number of stuck particles       = 0
    Number of free particles        = 1996
    Average linear kinetic energy   = 3.374397076e-20
    Average rotational energy       = 0
    Average vibrational energy      = 0
    Average electronic energy       = 0
    Total energy                    = 6.735296564e-15

Stage 1.0  ExecutionTime = 0.44 s  ClockTime = 1 s  Iteration 135 (0.001 s)

Time = 1.36e-07

    No collisions
    Number of DSMC particles        = 1975
    Number of stuck particles       = 0
    Number of free particles        = 1975
    Average linear kinetic energy   = 3.357830144e-20
    Average rotational energy       = 0
    Average vibrational energy      = 0
    Average electronic energy       = 0
    Total energy                    = 6.631714534e-15

Stage 1.0  ExecutionTime = 0.44 s  ClockTime = 1 s  Iteration 136 (0.001 s)

Time = 1.37e-07

    No collisions
    Number of DSMC particles        = 1950
    Number of stuck particles       = 0
    Number of free particles        = 1950
    Average linear kinetic energy   = 3.363074859e-20
    Average rotational energy       = 0
    Average vibrational energy      = 0
    Average electronic energy       = 0
    Total energy                    = 6.557995975e-15

Stage 1.0  ExecutionTime = 0.44 s  ClockTime = 1 s  Iteration 137 (0.001 s)

Time = 1.38e-07

    No collisions
    Number of DSMC particles        = 1933
    Number of stuck particles       = 0
    Number of free particles        = 1933
    Average linear kinetic energy   = 3.372567898e-20
    Average rotational energy       = 0
    Average vibrational energy      = 0
    Average electronic energy       = 0
    Total energy                    = 6.519173746e-15

Stage 1.0  ExecutionTime = 0.44 s  ClockTime = 1 s  Iteration 138 (0.001 s)

Time = 1.39e-07

    No collisions
    Number of DSMC particles        = 1916
    Number of stuck particles       = 0
    Number of free particles        = 1916
    Average linear kinetic energy   = 3.354286115e-20
    Average rotational energy       = 0
    Average vibrational energy      = 0
    Average electronic energy       = 0
    Total energy                    = 6.426812196e-15

Stage 1.0  ExecutionTime = 0.44 s  ClockTime = 1 s  Iteration 139 (0.001 s)

Time = 1.4e-07

    No collisions
    Number of DSMC particles        = 1902
    Number of stuck particles       = 0
    Number of free particles        = 1902
    Average linear kinetic energy   = 3.355455501e-20
    Average rotational energy       = 0
    Average vibrational energy      = 0
    Average electronic energy       = 0
    Total energy                    = 6.382076363e-15

Stage 1.0  ExecutionTime = 0.45 s  ClockTime = 1 s  Iteration 140 (0.01 s)

Time = 1.41e-07

    No collisions
    Number of DSMC particles        = 1878
    Number of stuck particles       = 0
    Number of free particles        = 1878
    Average linear kinetic energy   = 3.36113113e-20
    Average rotational energy       = 0
    Average vibrational energy      = 0
    Average electronic energy       = 0
    Total energy                    = 6.312204262e-15

Stage 1.0  ExecutionTime = 0.45 s  ClockTime = 1 s  Iteration 141 (0.001 s)

Time = 1.42e-07

    Collisions                      = 0

    Number of DSMC particles        = 1869
    Number of stuck particles       = 0
    Number of free particles        = 1869
    Average linear kinetic energy   = 3.362927225e-20
    Average rotational energy       = 0
    Average vibrational energy      = 0
    Average electronic energy       = 0
    Total energy                    = 6.285310984e-15

Stage 1.0  ExecutionTime = 0.45 s  ClockTime = 1 s  Iteration 142 (0.001 s)

Time = 1.43e-07

    No collisions
    Number of DSMC particles        = 1856
    Number of stuck particles       = 0
    Number of free particles        = 1856
    Average linear kinetic energy   = 3.377242025e-20
    Average rotational energy       = 0
    Average vibrational energy      = 0
    Average electronic energy       = 0
    Total energy                    = 6.268161198e-15

Stage 1.0  ExecutionTime = 0.45 s  ClockTime = 1 s  Iteration 143 (0.001 s)

Time = 1.44e-07

    No collisions
    Number of DSMC particles        = 1838
    Number of stuck particles       = 0
    Number of free particles        = 1838
    Average linear kinetic energy   = 3.35940815e-20
    Average rotational energy       = 0
    Average vibrational energy      = 0
    Average electronic energy       = 0
    Total energy                    = 6.17459218e-15

Stage 1.0  ExecutionTime = 0.46 s  ClockTime = 1 s  Iteration 144 (0.01 s)

Time = 1.45e-07

    No collisions
    Number of DSMC particles        = 1822
    Number of stuck particles       = 0
    Number of free particles        = 1822
    Average linear kinetic energy   = 3.361195982e-20
    Average rotational energy       = 0
    Average vibrational energy      = 0
    Average electronic energy       = 0
    Total energy                    = 6.124099079e-15

Stage 1.0  ExecutionTime = 0.46 s  ClockTime = 1 s  Iteration 145 (0.001 s)

Time = 1.46e-07

    No collisions
    Number of DSMC particles        = 1806
    Number of stuck particles       = 0
    Number of free particles        = 1806
    Average linear kinetic energy   = 3.376803675e-20
    Average rotational energy       = 0
    Average vibrational energy      = 0
    Average electronic energy       = 0
    Total energy                    = 6.098507436e-15

Stage 1.0  ExecutionTime = 0.46 s  ClockTime = 1 s  Iteration 146 (0.001 s)

Time = 1.47e-07

    No collisions
    Number of DSMC particles        = 1786
    Number of stuck particles       = 0
    Number of free particles        = 1786
    Average linear kinetic energy   = 3.397286561e-20
    Average rotational energy       = 0
    Average vibrational energy      = 0
    Average electronic energy       = 0
    Total energy                    = 6.067553798e-15

Stage 1.0  ExecutionTime = 0.46 s  ClockTime = 1 s  Iteration 147 (0.001 s)

Time = 1.48e-07

    No collisions
    Number of DSMC particles        = 1769
    Number of stuck particles       = 0
    Number of free particles        = 1769
    Average linear kinetic energy   = 3.397473029e-20
    Average rotational energy       = 0
    Average vibrational energy      = 0
    Average electronic energy       = 0
    Total energy                    = 6.010129789e-15

Stage 1.0  ExecutionTime = 0.46 s  ClockTime = 1 s  Iteration 148 (0.001 s)

Time = 1.49e-07

    No collisions
    Number of DSMC particles        = 1748
    Number of stuck particles       = 0
    Number of free particles        = 1748
    Average linear kinetic energy   = 3.408819178e-20
    Average rotational energy       = 0
    Average vibrational energy      = 0
    Average electronic energy       = 0
    Total energy                    = 5.958615924e-15

Stage 1.0  ExecutionTime = 0.46 s  ClockTime = 1 s  Iteration 149 (0.001 s)

Time = 1.5e-07

    No collisions
    Number of DSMC particles        = 1738
    Number of stuck particles       = 0
    Number of free particles        = 1738
    Average linear kinetic energy   = 3.404639247e-20
    Average rotational energy       = 0
    Average vibrational energy      = 0
    Average electronic energy       = 0
    Total energy                    = 5.917263012e-15

Stage 1.0  ExecutionTime = 0.46 s  ClockTime = 1 s  Iteration 150 (0.001 s)

Time = 1.51e-07

    No collisions
    Number of DSMC particles        = 1726
    Number of stuck particles       = 0
    Number of free particles        = 1726
    Average linear kinetic energy   = 3.411722445e-20
    Average rotational energy       = 0
    Average vibrational energy      = 0
    Average electronic energy       = 0
    Total energy                    = 5.88863294e-15

Stage 1.0  ExecutionTime = 0.46 s  ClockTime = 1 s  Iteration 151 (0.001 s)

Time = 1.52e-07

    Collisions                      = 0

    Number of DSMC particles        = 1705
    Number of stuck particles       = 0
    Number of free particles        = 1705
    Average linear kinetic energy   = 3.412847619e-20
    Average rotational energy       = 0
    Average vibrational energy      = 0
    Average electronic energy       = 0
    Total energy                    = 5.818905191e-15

Stage 1.0  ExecutionTime = 0.46 s  ClockTime = 1 s  Iteration 152 (0.001 s)

Time = 1.53e-07

    No collisions
    Number of DSMC particles        = 1693
    Number of stuck particles       = 0
    Number of free particles        = 1693
    Average linear kinetic energy   = 3.398497866e-20
    Average rotational energy       = 0
    Average vibrational energy      = 0
    Average electronic energy       = 0
    Total energy                    = 5.753656887e-15

Stage 1.0  ExecutionTime = 0.46 s  ClockTime = 1 s  Iteration 153 (0.001 s)

Time = 1.54e-07

    No collisions
    Number of DSMC particles        = 1668
    Number of stuck particles       = 0
    Number of free particles        = 1668
    Average linear kinetic energy   = 3.402776212e-20
    Average rotational energy       = 0
    Average vibrational energy      = 0
    Average electronic energy       = 0
    Total energy                    = 5.675830722e-15

Stage 1.0  ExecutionTime = 0.47 s  ClockTime = 1 s  Iteration 154 (0.01 s)

Time = 1.55e-07

    No collisions
    Number of DSMC particles        = 1653
    Number of stuck particles       = 0
    Number of free particles        = 1653
    Average linear kinetic energy   = 3.40641934e-20
    Average rotational energy       = 0
    Average vibrational energy      = 0
    Average electronic energy       = 0
    Total energy                    = 5.630811168e-15

Stage 1.0  ExecutionTime = 0.47 s  ClockTime = 1 s  Iteration 155 (0.001 s)

Time = 1.56e-07

    No collisions
    Number of DSMC particles        = 1638
    Number of stuck particles       = 0
    Number of free particles        = 1638
    Average linear kinetic energy   = 3.405802301e-20
    Average rotational energy       = 0
    Average vibrational energy      = 0
    Average electronic energy       = 0
    Total energy                    = 5.578704168e-15

Stage 1.0  ExecutionTime = 0.47 s  ClockTime = 1 s  Iteration 156 (0.001 s)

Time = 1.57e-07

    No collisions
    Number of DSMC particles        = 1621
    Number of stuck particles       = 0
    Number of free particles        = 1621
    Average linear kinetic energy   = 3.425605467e-20
    Average rotational energy       = 0
    Average vibrational energy      = 0
    Average electronic energy       = 0
    Total energy                    = 5.552906463e-15

Stage 1.0  ExecutionTime = 0.47 s  ClockTime = 1 s  Iteration 157 (0.001 s)

Time = 1.58e-07

    No collisions
    Number of DSMC particles        = 1610
    Number of stuck particles       = 0
    Number of free particles        = 1610
    Average linear kinetic energy   = 3.407938625e-20
    Average rotational energy       = 0
    Average vibrational energy      = 0
    Average electronic energy       = 0
    Total energy                    = 5.486781186e-15

Stage 1.0  ExecutionTime = 0.47 s  ClockTime = 1 s  Iteration 158 (0.001 s)

Time = 1.59e-07

    No collisions
    Number of DSMC particles        = 1598
    Number of stuck particles       = 0
    Number of free particles        = 1598
    Average linear kinetic energy   = 3.407534164e-20
    Average rotational energy       = 0
    Average vibrational energy      = 0
    Average electronic energy       = 0
    Total energy                    = 5.445239594e-15

Stage 1.0  ExecutionTime = 0.47 s  ClockTime = 1 s  Iteration 159 (0.001 s)

Time = 1.6e-07

    No collisions
    Number of DSMC particles        = 1585
    Number of stuck particles       = 0
    Number of free particles        = 1585
    Average linear kinetic energy   = 3.400471857e-20
    Average rotational energy       = 0
    Average vibrational energy      = 0
    Average electronic energy       = 0
    Total energy                    = 5.389747894e-15

Stage 1.0  ExecutionTime = 0.47 s  ClockTime = 1 s  Iteration 160 (0.001 s)

Time = 1.61e-07

    No collisions
    Number of DSMC particles        = 1570
    Number of stuck particles       = 0
    Number of free particles        = 1570
    Average linear kinetic energy   = 3.39244874e-20
    Average rotational energy       = 0
    Average vibrational energy      = 0
    Average electronic energy       = 0
    Total energy                    = 5.326144522e-15

Stage 1.0  ExecutionTime = 0.47 s  ClockTime = 1 s  Iteration 161 (0.001 s)

Time = 1.62e-07

    No collisions
    Number of DSMC particles        = 1555
    Number of stuck particles       = 0
    Number of free particles        = 1555
    Average linear kinetic energy   = 3.419964741e-20
    Average rotational energy       = 0
    Average vibrational energy      = 0
    Average electronic energy       = 0
    Total energy                    = 5.318045172e-15

Stage 1.0  ExecutionTime = 0.47 s  ClockTime = 1 s  Iteration 162 (0.001 s)

Time = 1.63e-07

    Collisions                      = 0

    Number of DSMC particles        = 1545
    Number of stuck particles       = 0
    Number of free particles        = 1545
    Average linear kinetic energy   = 3.415955116e-20
    Average rotational energy       = 0
    Average vibrational energy      = 0
    Average electronic energy       = 0
    Total energy                    = 5.277650654e-15

Stage 1.0  ExecutionTime = 0.47 s  ClockTime = 1 s  Iteration 163 (0.001 s)

Time = 1.64e-07

    No collisions
[...]
    Number of DSMC particles        = 146
    Number of stuck particles       = 0
    Number of free particles        = 146
    Average linear kinetic energy   = 3.294846564e-20
    Average rotational energy       = 0
    Average vibrational energy      = 0
    Average electronic energy       = 0
    Total energy                    = 4.810475984e-16

Stage 1.0  ExecutionTime = 0.69 s  ClockTime = 1 s  Iteration 958 (0.001 s)

Time = 9.59e-07

    No collisions
    Number of DSMC particles        = 146
    Number of stuck particles       = 0
    Number of free particles        = 146
    Average linear kinetic energy   = 3.294846564e-20
    Average rotational energy       = 0
    Average vibrational energy      = 0
    Average electronic energy       = 0
    Total energy                    = 4.810475984e-16

Stage 1.0  ExecutionTime = 0.69 s  ClockTime = 1 s  Iteration 959 (0.001 s)

Time = 9.6e-07

    No collisions
    Number of DSMC particles        = 146
    Number of stuck particles       = 0
    Number of free particles        = 146
    Average linear kinetic energy   = 3.294846564e-20
    Average rotational energy       = 0
    Average vibrational energy      = 0
    Average electronic energy       = 0
    Total energy                    = 4.810475984e-16

Stage 1.0  ExecutionTime = 0.69 s  ClockTime = 1 s  Iteration 960 (0.001 s)

Time = 9.61e-07

    No collisions
    Number of DSMC particles        = 144
    Number of stuck particles       = 0
    Number of free particles        = 144
    Average linear kinetic energy   = 3.373137559e-20
    Average rotational energy       = 0
    Average vibrational energy      = 0
    Average electronic energy       = 0
    Total energy                    = 4.857318085e-16

Stage 1.0  ExecutionTime = 0.69 s  ClockTime = 1 s  Iteration 961 (0.001 s)

Time = 9.62e-07

    No collisions
    Number of DSMC particles        = 144
    Number of stuck particles       = 0
    Number of free particles        = 144
    Average linear kinetic energy   = 3.373137559e-20
    Average rotational energy       = 0
    Average vibrational energy      = 0
    Average electronic energy       = 0
    Total energy                    = 4.857318085e-16

Stage 1.0  ExecutionTime = 0.69 s  ClockTime = 1 s  Iteration 962 (0.001 s)

Time = 9.63e-07

    No collisions
    Number of DSMC particles        = 143
    Number of stuck particles       = 0
    Number of free particles        = 143
    Average linear kinetic energy   = 3.369723395e-20
    Average rotational energy       = 0
    Average vibrational energy      = 0
    Average electronic energy       = 0
    Total energy                    = 4.818704454e-16

Stage 1.0  ExecutionTime = 0.69 s  ClockTime = 1 s  Iteration 963 (0.001 s)

Time = 9.64e-07

    No collisions
    Number of DSMC particles        = 143
    Number of stuck particles       = 0
    Number of free particles        = 143
    Average linear kinetic energy   = 3.369723395e-20
    Average rotational energy       = 0
    Average vibrational energy      = 0
    Average electronic energy       = 0
    Total energy                    = 4.818704454e-16

Stage 1.0  ExecutionTime = 0.69 s  ClockTime = 1 s  Iteration 964 (0.001 s)

Time = 9.65e-07

    No collisions
    Number of DSMC particles        = 143
    Number of stuck particles       = 0
    Number of free particles        = 143
    Average linear kinetic energy   = 3.369723395e-20
    Average rotational energy       = 0
    Average vibrational energy      = 0
    Average electronic energy       = 0
    Total energy                    = 4.818704454e-16

Stage 1.0  ExecutionTime = 0.69 s  ClockTime = 1 s  Iteration 965 (0.001 s)

Time = 9.66e-07

    No collisions
    Number of DSMC particles        = 142
    Number of stuck particles       = 0
    Number of free particles        = 142
    Average linear kinetic energy   = 3.303894091e-20
    Average rotational energy       = 0
    Average vibrational energy      = 0
    Average electronic energy       = 0
    Total energy                    = 4.691529609e-16

Stage 1.0  ExecutionTime = 0.69 s  ClockTime = 1 s  Iteration 966 (0.001 s)

Time = 9.67e-07

    No collisions
    Number of DSMC particles        = 142
    Number of stuck particles       = 0
    Number of free particles        = 142
    Average linear kinetic energy   = 3.303894091e-20
    Average rotational energy       = 0
    Average vibrational energy      = 0
    Average electronic energy       = 0
    Total energy                    = 4.691529609e-16

Stage 1.0  ExecutionTime = 0.69 s  ClockTime = 1 s  Iteration 967 (0.001 s)

Time = 9.68e-07

    No collisions
    Number of DSMC particles        = 142
    Number of stuck particles       = 0
    Number of free particles        = 142
    Average linear kinetic energy   = 3.303894091e-20
    Average rotational energy       = 0
    Average vibrational energy      = 0
    Average electronic energy       = 0
    Total energy                    = 4.691529609e-16

Stage 1.0  ExecutionTime = 0.69 s  ClockTime = 1 s  Iteration 968 (0.001 s)

Time = 9.69e-07

    No collisions
    Number of DSMC particles        = 142
    Number of stuck particles       = 0
    Number of free particles        = 142
    Average linear kinetic energy   = 3.303894091e-20
    Average rotational energy       = 0
    Average vibrational energy      = 0
    Average electronic energy       = 0
    Total energy                    = 4.691529609e-16

Stage 1.0  ExecutionTime = 0.69 s  ClockTime = 1 s  Iteration 969 (0.001 s)

Time = 9.7e-07

    No collisions
    Number of DSMC particles        = 142
    Number of stuck particles       = 0
    Number of free particles        = 142
    Average linear kinetic energy   = 3.303894091e-20
    Average rotational energy       = 0
    Average vibrational energy      = 0
    Average electronic energy       = 0
    Total energy                    = 4.691529609e-16

Stage 1.0  ExecutionTime = 0.69 s  ClockTime = 1 s  Iteration 970 (0.001 s)

Time = 9.71e-07

    No collisions
    Number of DSMC particles        = 141
    Number of stuck particles       = 0
    Number of free particles        = 141
    Average linear kinetic energy   = 3.322624836e-20
    Average rotational energy       = 0
    Average vibrational energy      = 0
    Average electronic energy       = 0
    Total energy                    = 4.684901019e-16

Stage 1.0  ExecutionTime = 0.69 s  ClockTime = 1 s  Iteration 971 (0.001 s)

Time = 9.72e-07

    No collisions
    Number of DSMC particles        = 141
    Number of stuck particles       = 0
    Number of free particles        = 141
    Average linear kinetic energy   = 3.322624836e-20
    Average rotational energy       = 0
    Average vibrational energy      = 0
    Average electronic energy       = 0
    Total energy                    = 4.684901019e-16

Stage 1.0  ExecutionTime = 0.69 s  ClockTime = 1 s  Iteration 972 (0.001 s)

Time = 9.73e-07

    No collisions
    Number of DSMC particles        = 141
    Number of stuck particles       = 0
    Number of free particles        = 141
    Average linear kinetic energy   = 3.322624836e-20
    Average rotational energy       = 0
    Average vibrational energy      = 0
    Average electronic energy       = 0
    Total energy                    = 4.684901019e-16

Stage 1.0  ExecutionTime = 0.69 s  ClockTime = 1 s  Iteration 973 (0.001 s)

Time = 9.74e-07

    No collisions
    Number of DSMC particles        = 141
    Number of stuck particles       = 0
    Number of free particles        = 141
    Average linear kinetic energy   = 3.322624836e-20
    Average rotational energy       = 0
    Average vibrational energy      = 0
    Average electronic energy       = 0
    Total energy                    = 4.684901019e-16

Stage 1.0  ExecutionTime = 0.69 s  ClockTime = 1 s  Iteration 974 (0.001 s)

Time = 9.75e-07

    No collisions
    Number of DSMC particles        = 141
    Number of stuck particles       = 0
    Number of free particles        = 141
    Average linear kinetic energy   = 3.322624836e-20
    Average rotational energy       = 0
    Average vibrational energy      = 0
    Average electronic energy       = 0
    Total energy                    = 4.684901019e-16

Stage 1.0  ExecutionTime = 0.69 s  ClockTime = 1 s  Iteration 975 (0.001 s)

Time = 9.76e-07

    No collisions
    Number of DSMC particles        = 141
    Number of stuck particles       = 0
    Number of free particles        = 141
    Average linear kinetic energy   = 3.322624836e-20
    Average rotational energy       = 0
    Average vibrational energy      = 0
    Average electronic energy       = 0
    Total energy                    = 4.684901019e-16

Stage 1.0  ExecutionTime = 0.69 s  ClockTime = 1 s  Iteration 976 (0.001 s)

Time = 9.77e-07

    No collisions
    Number of DSMC particles        = 141
    Number of stuck particles       = 0
    Number of free particles        = 141
    Average linear kinetic energy   = 3.322624836e-20
    Average rotational energy       = 0
    Average vibrational energy      = 0
    Average electronic energy       = 0
    Total energy                    = 4.684901019e-16

Stage 1.0  ExecutionTime = 0.69 s  ClockTime = 1 s  Iteration 977 (0.001 s)

Time = 9.78e-07

    No collisions
    Number of DSMC particles        = 140
    Number of stuck particles       = 0
    Number of free particles        = 140
    Average linear kinetic energy   = 3.34447394e-20
    Average rotational energy       = 0
    Average vibrational energy      = 0
    Average electronic energy       = 0
    Total energy                    = 4.682263515e-16

Stage 1.0  ExecutionTime = 0.69 s  ClockTime = 1 s  Iteration 978 (0.001 s)

Time = 9.79e-07

    No collisions
    Number of DSMC particles        = 140
    Number of stuck particles       = 0
    Number of free particles        = 140
    Average linear kinetic energy   = 3.273931091e-20
    Average rotational energy       = 0
    Average vibrational energy      = 0
    Average electronic energy       = 0
    Total energy                    = 4.583503527e-16

Stage 1.0  ExecutionTime = 0.69 s  ClockTime = 1 s  Iteration 979 (0.001 s)

Time = 9.8e-07

    No collisions
    Number of DSMC particles        = 140
    Number of stuck particles       = 0
    Number of free particles        = 140
    Average linear kinetic energy   = 3.273931091e-20
    Average rotational energy       = 0
    Average vibrational energy      = 0
    Average electronic energy       = 0
    Total energy                    = 4.583503527e-16

Stage 1.0  ExecutionTime = 0.69 s  ClockTime = 1 s  Iteration 980 (0.001 s)

Time = 9.81e-07

    No collisions
    Number of DSMC particles        = 140
    Number of stuck particles       = 0
    Number of free particles        = 140
    Average linear kinetic energy   = 3.273931091e-20
    Average rotational energy       = 0
    Average vibrational energy      = 0
    Average electronic energy       = 0
    Total energy                    = 4.583503527e-16

Stage 1.0  ExecutionTime = 0.69 s  ClockTime = 1 s  Iteration 981 (0.001 s)

Time = 9.82e-07

    No collisions
    Number of DSMC particles        = 140
    Number of stuck particles       = 0
    Number of free particles        = 140
    Average linear kinetic energy   = 3.273931091e-20
    Average rotational energy       = 0
    Average vibrational energy      = 0
    Average electronic energy       = 0
    Total energy                    = 4.583503527e-16

Stage 1.0  ExecutionTime = 0.69 s  ClockTime = 1 s  Iteration 982 (0.001 s)

Time = 9.83e-07

    No collisions
    Number of DSMC particles        = 140
    Number of stuck particles       = 0
    Number of free particles        = 140
    Average linear kinetic energy   = 3.273931091e-20
    Average rotational energy       = 0
    Average vibrational energy      = 0
    Average electronic energy       = 0
    Total energy                    = 4.583503527e-16

Stage 1.0  ExecutionTime = 0.69 s  ClockTime = 1 s  Iteration 983 (0.001 s)

Time = 9.84e-07

    No collisions
    Number of DSMC particles        = 140
    Number of stuck particles       = 0
    Number of free particles        = 140
    Average linear kinetic energy   = 3.273931091e-20
    Average rotational energy       = 0
    Average vibrational energy      = 0
    Average electronic energy       = 0
    Total energy                    = 4.583503527e-16

Stage 1.0  ExecutionTime = 0.69 s  ClockTime = 1 s  Iteration 984 (0.001 s)

Time = 9.85e-07

    No collisions
    Number of DSMC particles        = 140
    Number of stuck particles       = 0
    Number of free particles        = 140
    Average linear kinetic energy   = 3.273931091e-20
    Average rotational energy       = 0
    Average vibrational energy      = 0
    Average electronic energy       = 0
    Total energy                    = 4.583503527e-16

Stage 1.0  ExecutionTime = 0.69 s  ClockTime = 1 s  Iteration 985 (0.001 s)

Time = 9.86e-07

    No collisions
    Number of DSMC particles        = 140
    Number of stuck particles       = 0
    Number of free particles        = 140
    Average linear kinetic energy   = 3.273931091e-20
    Average rotational energy       = 0
    Average vibrational energy      = 0
    Average electronic energy       = 0
    Total energy                    = 4.583503527e-16

Stage 1.0  ExecutionTime = 0.69 s  ClockTime = 1 s  Iteration 986 (0.001 s)

Time = 9.87e-07

    No collisions
    Number of DSMC particles        = 140
    Number of stuck particles       = 0
    Number of free particles        = 140
    Average linear kinetic energy   = 3.273931091e-20
    Average rotational energy       = 0
    Average vibrational energy      = 0
    Average electronic energy       = 0
    Total energy                    = 4.583503527e-16

Stage 1.0  ExecutionTime = 0.69 s  ClockTime = 1 s  Iteration 987 (0.001 s)

Time = 9.88e-07

    No collisions
    Number of DSMC particles        = 140
    Number of stuck particles       = 0
    Number of free particles        = 140
    Average linear kinetic energy   = 3.273931091e-20
    Average rotational energy       = 0
    Average vibrational energy      = 0
    Average electronic energy       = 0
    Total energy                    = 4.583503527e-16

Stage 1.0  ExecutionTime = 0.69 s  ClockTime = 1 s  Iteration 988 (0.001 s)

Time = 9.89e-07

    No collisions
    Number of DSMC particles        = 140
    Number of stuck particles       = 0
    Number of free particles        = 140
    Average linear kinetic energy   = 3.273931091e-20
    Average rotational energy       = 0
    Average vibrational energy      = 0
    Average electronic energy       = 0
    Total energy                    = 4.583503527e-16

Stage 1.0  ExecutionTime = 0.69 s  ClockTime = 1 s  Iteration 989 (0.001 s)

Time = 9.9e-07

    No collisions
    Number of DSMC particles        = 140
    Number of stuck particles       = 0
    Number of free particles        = 140
    Average linear kinetic energy   = 3.273931091e-20
    Average rotational energy       = 0
    Average vibrational energy      = 0
    Average electronic energy       = 0
    Total energy                    = 4.583503527e-16

Stage 1.0  ExecutionTime = 0.69 s  ClockTime = 1 s  Iteration 990 (0.001 s)

Time = 9.91e-07

    No collisions
    Number of DSMC particles        = 140
    Number of stuck particles       = 0
    Number of free particles        = 140
    Average linear kinetic energy   = 3.273931091e-20
    Average rotational energy       = 0
    Average vibrational energy      = 0
    Average electronic energy       = 0
    Total energy                    = 4.583503527e-16

Stage 1.0  ExecutionTime = 0.69 s  ClockTime = 1 s  Iteration 991 (0.001 s)

Time = 9.92e-07

    No collisions
    Number of DSMC particles        = 139
    Number of stuck particles       = 0
    Number of free particles        = 139
    Average linear kinetic energy   = 3.288083639e-20
    Average rotational energy       = 0
    Average vibrational energy      = 0
    Average electronic energy       = 0
    Total energy                    = 4.570436258e-16

Stage 1.0  ExecutionTime = 0.69 s  ClockTime = 1 s  Iteration 992 (0.001 s)

Time = 9.93e-07

    No collisions
    Number of DSMC particles        = 139
    Number of stuck particles       = 0
    Number of free particles        = 139
    Average linear kinetic energy   = 3.288083639e-20
    Average rotational energy       = 0
    Average vibrational energy      = 0
    Average electronic energy       = 0
    Total energy                    = 4.570436258e-16

Stage 1.0  ExecutionTime = 0.69 s  ClockTime = 1 s  Iteration 993 (0.001 s)

Time = 9.94e-07

    No collisions
    Number of DSMC particles        = 139
    Number of stuck particles       = 0
    Number of free particles        = 139
    Average linear kinetic energy   = 3.297406075e-20
    Average rotational energy       = 0
    Average vibrational energy      = 0
    Average electronic energy       = 0
    Total energy                    = 4.583394445e-16

Stage 1.0  ExecutionTime = 0.69 s  ClockTime = 1 s  Iteration 994 (0.001 s)

Time = 9.95e-07

    No collisions
    Number of DSMC particles        = 139
    Number of stuck particles       = 0
    Number of free particles        = 139
    Average linear kinetic energy   = 3.297406075e-20
    Average rotational energy       = 0
    Average vibrational energy      = 0
    Average electronic energy       = 0
    Total energy                    = 4.583394445e-16

Stage 1.0  ExecutionTime = 0.69 s  ClockTime = 1 s  Iteration 995 (0.001 s)

Time = 9.96e-07

    No collisions
    Number of DSMC particles        = 139
    Number of stuck particles       = 0
    Number of free particles        = 139
    Average linear kinetic energy   = 3.297406075e-20
    Average rotational energy       = 0
    Average vibrational energy      = 0
    Average electronic energy       = 0
    Total energy                    = 4.583394445e-16

Stage 1.0  ExecutionTime = 0.69 s  ClockTime = 1 s  Iteration 996 (0.001 s)

Time = 9.97e-07

    No collisions
    Number of DSMC particles        = 138
    Number of stuck particles       = 0
    Number of free particles        = 138
    Average linear kinetic energy   = 3.302035283e-20
    Average rotational energy       = 0
    Average vibrational energy      = 0
    Average electronic energy       = 0
    Total energy                    = 4.55680869e-16

Stage 1.0  ExecutionTime = 0.69 s  ClockTime = 1 s  Iteration 997 (0.001 s)

Time = 9.98e-07

    No collisions
    Number of DSMC particles        = 138
    Number of stuck particles       = 0
    Number of free particles        = 138
    Average linear kinetic energy   = 3.392905631e-20
    Average rotational energy       = 0
    Average vibrational energy      = 0
    Average electronic energy       = 0
    Total energy                    = 4.682209771e-16

Stage 1.0  ExecutionTime = 0.69 s  ClockTime = 1 s  Iteration 998 (0.001 s)

Time = 9.99e-07

    No collisions
    Number of DSMC particles        = 138
    Number of stuck particles       = 0
    Number of free particles        = 138
    Average linear kinetic energy   = 3.392905631e-20
    Average rotational energy       = 0
    Average vibrational energy      = 0
    Average electronic energy       = 0
    Total energy                    = 4.682209771e-16

Stage 1.0  ExecutionTime = 0.69 s  ClockTime = 1 s  Iteration 999 (0.001 s)

Time = 1e-06

    No collisions
    Number of DSMC particles        = 138
    Number of stuck particles       = 0
    Number of free particles        = 138
    Average linear kinetic energy   = 3.392905631e-20
    Average rotational energy       = 0
    Average vibrational energy      = 0
    Average electronic energy       = 0
    Total energy                    = 4.682209771e-16

Stage 1.0  ExecutionTime = 0.7 s  ClockTime = 1 s  Iteration 1000 (0.01 s)

End stage 1

Total Iterations = 1000
End main

