/*---------------------------------------------------------------------------*\
| =========                 |                                                 |
| \\      /  F ield         | OpenFOAM: The Open Source CFD Toolbox           |
|  \\    /   O peration     | Version:  v1706                                 |
|   \\  /    A nd           | Web:      www.OpenFOAM.com                      |
|    \\/     M anipulation  |                                                 |
\*---------------------------------------------------------------------------*/
Build  : v1706
Arch   : "LSB;label=32;scalar=64"
Exec   : dsmcFoam+ -parallel
Date   : Jan 13 2019
Time   : 11:05:00
Host   : "Galileo"
PID    : 2793
Case   : /home/vincent/OpenFOAM/vincent-v1706/hyStrath/run/hyStrath/dsmcFoam+/couette/couette_N2-O2_vibLess
nProcs : 2
Slaves : 1("Galileo.2794")
Pstream initialized with:
    floatTransfer      : 0
    nProcsSimpleSum    : 0
    commsType          : nonBlocking
    polling iterations : 0
sigFpe : Enabling floating point exception trapping (FOAM_SIGFPE).
fileModificationChecking : Monitoring run-time modified files using timeStampMaster (fileModificationSkew 10)
allowSystemOperations : Allowing user-supplied system call operations

// * * * * * * * * * * * * * * * * * * * * * * * * * * * * * * * * * * * * * //
Create time

Create mesh for time = 0

Selecting dynamicFvMesh dynamicRefineFvMesh

Constructing dsmcCloud 
Selecting the coordinate system model:	dsmcCartesian

Selecting the time-step model:	dsmcConstantTimeStepModel

Constant time-step model:
- time-step [sec]	1e-05

Selecting the porous measurement model:	dsmcNoPorousMediumMeasurements


Creating dsmcControllers

Creating fields: 

Selecting field: dsmcVolFields

TimeData Statistics: 
 measurement option: write
 nSamples: 1, time interval: 1e-05
 nAverages: 100000, time interval: 1
 total no. of sampling steps: 1000000
 total no. of averaging Steps: 10


Selecting field: dsmcVolFields

TimeData Statistics: 
 measurement option: write
 nSamples: 1, time interval: 1e-05
 nAverages: 100000, time interval: 1
 total no. of sampling steps: 1000000
 total no. of averaging Steps: 10


Selecting field: dsmcVolFields

TimeData Statistics: 
 measurement option: write
 nSamples: 1, time interval: 1e-05
 nAverages: 100000, time interval: 1
 total no. of sampling steps: 1000000
 total no. of averaging Steps: 10


Creating the boundary models: 

Selecting dsmcPatchBoundaryModel dsmcDiffuseWallPatch
Selecting dsmcPatchBoundaryModel dsmcDiffuseWallPatch
Selecting BinaryCollisionModel LarsenBorgnakkeVariableHardSphere

Creating dsmcReactions

WARNING: there are no reactions.

Constructing constant properties for
	N2
	O2
pair addressing: 
2
(
2{-1}
2{-1}
)

Selecting collisionPartnerSelectionModel noTimeCounter

Initialising the measurement fields

Initialising dsmcVolFields field
Initialising dsmcVolFields field
Averaging across many runs enabled.

Initialising dsmcVolFields field
Averaging across many runs enabled.


Starting time loop

Time = 0.001

    Collisions                      = 5652

    Number of DSMC particles        = 47581
    Number of stuck particles       = 0
    Number of free particles        = 47581
    Average linear kinetic energy   = 4.613784871e-20
    Average rotational energy       = 3.020492287e-20
    Average vibrational energy      = 0
    Average electronic energy       = 0
    Total energy                    = 0.001560420673

Stage 1.0  ExecutionTime = 5.11 s  ClockTime = 5 s  Iteration 100 (0.06 s)

Time = 0.002

    Collisions                      = 5762

    Number of DSMC particles        = 47581
    Number of stuck particles       = 0
    Number of free particles        = 47581
    Average linear kinetic energy   = 4.823056137e-20
    Average rotational energy       = 3.213187852e-20
    Average vibrational energy      = 0
    Average electronic energy       = 0
    Total energy                    = 0.001642581347

Stage 1.0  ExecutionTime = 10.74 s  ClockTime = 11 s  Iteration 200 (0.05 s)

Time = 0.003

    Collisions                      = 5981

    Number of DSMC particles        = 47581
    Number of stuck particles       = 0
    Number of free particles        = 47581
    Average linear kinetic energy   = 4.999912078e-20
    Average rotational energy       = 3.289363448e-20
    Average vibrational energy      = 0
    Average electronic energy       = 0
    Total energy                    = 0.001694300145

Stage 1.0  ExecutionTime = 16.37 s  ClockTime = 17 s  Iteration 300 (0.06 s)

Time = 0.004

    Collisions                      = 5915

    Number of DSMC particles        = 47581
    Number of stuck particles       = 0
    Number of free particles        = 47581
    Average linear kinetic energy   = 5.073289161e-20
    Average rotational energy       = 3.380573576e-20
    Average vibrational energy      = 0
    Average electronic energy       = 0
    Total energy                    = 0.00172794122

Stage 1.0  ExecutionTime = 22.07 s  ClockTime = 22 s  Iteration 400 (0.06 s)

Time = 0.005

    Collisions                      = 5872

    Number of DSMC particles        = 47581
    Number of stuck particles       = 0
    Number of free particles        = 47581
    Average linear kinetic energy   = 5.145605356e-20
    Average rotational energy       = 3.379346847e-20
    Average vibrational energy      = 0
    Average electronic energy       = 0
    Total energy                    = 0.001742471668

Stage 1.0  ExecutionTime = 27.88 s  ClockTime = 28 s  Iteration 500 (0.06 s)

Time = 0.006

    Collisions                      = 5928

    Number of DSMC particles        = 47581
    Number of stuck particles       = 0
    Number of free particles        = 47581
    Average linear kinetic energy   = 5.138051966e-20
    Average rotational energy       = 3.392610838e-20
    Average vibrational energy      = 0
    Average electronic energy       = 0
    Total energy                    = 0.001743638896

Stage 1.0  ExecutionTime = 33.8 s  ClockTime = 34 s  Iteration 600 (0.07 s)

Time = 0.007

    Collisions                      = 5938

    Number of DSMC particles        = 47581
    Number of stuck particles       = 0
    Number of free particles        = 47581
    Average linear kinetic energy   = 5.174405615e-20
    Average rotational energy       = 3.407225161e-20
    Average vibrational energy      = 0
    Average electronic energy       = 0
    Total energy                    = 0.001754056579

Stage 1.0  ExecutionTime = 39.65 s  ClockTime = 40 s  Iteration 700 (0.07 s)

Time = 0.008

    Collisions                      = 5849

    Number of DSMC particles        = 47581
    Number of stuck particles       = 0
    Number of free particles        = 47581
    Average linear kinetic energy   = 5.175677145e-20
    Average rotational energy       = 3.424978105e-20
    Average vibrational energy      = 0
    Average electronic energy       = 0
    Total energy                    = 0.001757945117

Stage 1.0  ExecutionTime = 45.43 s  ClockTime = 46 s  Iteration 800 (0.07 s)

Time = 0.009

    Collisions                      = 5950

    Number of DSMC particles        = 47581
    Number of stuck particles       = 0
    Number of free particles        = 47581
    Average linear kinetic energy   = 5.21138854e-20
    Average rotational energy       = 3.410146105e-20
    Average vibrational energy      = 0
    Average electronic energy       = 0
    Total energy                    = 0.001762212796

Stage 1.0  ExecutionTime = 51.34 s  ClockTime = 52 s  Iteration 900 (0.08 s)

Time = 0.01

    Collisions                      = 5934

    Number of DSMC particles        = 47581
    Number of stuck particles       = 0
    Number of free particles        = 47581
    Average linear kinetic energy   = 5.204275998e-20
    Average rotational energy       = 3.43056062e-20
    Average vibrational energy      = 0
    Average electronic energy       = 0
    Total energy                    = 0.001764931675

Stage 1.0  ExecutionTime = 57.24 s  ClockTime = 58 s  Iteration 1000 (0.07 s)

Time = 0.011

    Collisions                      = 5835

    Number of DSMC particles        = 47581
    Number of stuck particles       = 0
    Number of free particles        = 47581
    Average linear kinetic energy   = 5.224995893e-20
    Average rotational energy       = 3.437102357e-20
    Average vibrational energy      = 0
    Average electronic energy       = 0
    Total energy                    = 0.001770503861

Stage 1.0  ExecutionTime = 63.15 s  ClockTime = 64 s  Iteration 1100 (0.07 s)

Time = 0.012

    Collisions                      = 5936

    Number of DSMC particles        = 47581
    Number of stuck particles       = 0
    Number of free particles        = 47581
    Average linear kinetic energy   = 5.218214308e-20
    Average rotational energy       = 3.43078798e-20
    Average vibrational energy      = 0
    Average electronic energy       = 0
    Total energy                    = 0.00176782709

Stage 1.0  ExecutionTime = 69.04 s  ClockTime = 69 s  Iteration 1200 (0.08 s)

Time = 0.013

    Collisions                      = 5844

    Number of DSMC particles        = 47581
    Number of stuck particles       = 0
    Number of free particles        = 47581
    Average linear kinetic energy   = 5.238250502e-20
    Average rotational energy       = 3.450739956e-20
    Average vibrational energy      = 0
    Average electronic energy       = 0
    Total energy                    = 0.001776000538

Stage 1.0  ExecutionTime = 74.95 s  ClockTime = 75 s  Iteration 1300 (0.07 s)

Time = 0.014

    Collisions                      = 5825

    Number of DSMC particles        = 47581
    Number of stuck particles       = 0
    Number of free particles        = 47581
    Average linear kinetic energy   = 5.239621585e-20
    Average rotational energy       = 3.434524734e-20
    Average vibrational energy      = 0
    Average electronic energy       = 0
    Total energy                    = 0.001772966446

Stage 1.0  ExecutionTime = 81.13 s  ClockTime = 82 s  Iteration 1400 (0.06 s)

Time = 0.015

    Collisions                      = 5939

    Number of DSMC particles        = 47581
    Number of stuck particles       = 0
    Number of free particles        = 47581
    Average linear kinetic energy   = 5.214419684e-20
    Average rotational energy       = 3.447917051e-20
    Average vibrational energy      = 0
    Average electronic energy       = 0
    Total energy                    = 0.001770552606

Stage 1.0  ExecutionTime = 87.3 s  ClockTime = 88 s  Iteration 1500 (0.06 s)

Time = 0.016

    Collisions                      = 5854

    Number of DSMC particles        = 47581
    Number of stuck particles       = 0
    Number of free particles        = 47581
    Average linear kinetic energy   = 5.213187151e-20
    Average rotational energy       = 3.414534495e-20
    Average vibrational energy      = 0
    Average electronic energy       = 0
    Total energy                    = 0.001763477398

Stage 1.0  ExecutionTime = 93.16 s  ClockTime = 94 s  Iteration 1600 (0.06 s)

Time = 0.017

    Collisions                      = 5948

    Number of DSMC particles        = 47581
    Number of stuck particles       = 0
    Number of free particles        = 47581
    Average linear kinetic energy   = 5.197079409e-20
    Average rotational energy       = 3.431294036e-20
    Average vibrational energy      = 0
    Average electronic energy       = 0
    Total energy                    = 0.001763610624

Stage 1.0  ExecutionTime = 98.94 s  ClockTime = 99 s  Iteration 1700 (0.06 s)

Time = 0.018

    Collisions                      = 5947

    Number of DSMC particles        = 47581
    Number of stuck particles       = 0
    Number of free particles        = 47581
    Average linear kinetic energy   = 5.229666801e-20
    Average rotational energy       = 3.420202653e-20
    Average vibrational energy      = 0
    Average electronic energy       = 0
    Total energy                    = 0.001768004336

Stage 1.0  ExecutionTime = 104.71 s  ClockTime = 105 s  Iteration 1800 (0.06 s)

Time = 0.019

    Collisions                      = 5808

    Number of DSMC particles        = 47581
    Number of stuck particles       = 0
    Number of free particles        = 47581
    Average linear kinetic energy   = 5.206230589e-20
    Average rotational energy       = 3.444528542e-20
    Average vibrational energy      = 0
    Average electronic energy       = 0
    Total energy                    = 0.001768186183

Stage 1.0  ExecutionTime = 110.43 s  ClockTime = 111 s  Iteration 1900 (0.06 s)

Time = 0.02

    Collisions                      = 5815

    Number of DSMC particles        = 47581
    Number of stuck particles       = 0
    Number of free particles        = 47581
    Average linear kinetic energy   = 5.213762784e-20
    Average rotational energy       = 3.462639944e-20
    Average vibrational energy      = 0
    Average electronic energy       = 0
    Total energy                    = 0.001773427648

Stage 1.0  ExecutionTime = 116.15 s  ClockTime = 117 s  Iteration 2000 (0.06 s)

Time = 0.021

    Collisions                      = 5920

    Number of DSMC particles        = 47581
    Number of stuck particles       = 0
    Number of free particles        = 47581
    Average linear kinetic energy   = 5.240056039e-20
    Average rotational energy       = 3.435114491e-20
    Average vibrational energy      = 0
    Average electronic energy       = 0
    Total energy                    = 0.001773175791

Stage 1.0  ExecutionTime = 121.91 s  ClockTime = 122 s  Iteration 2100 (0.07 s)

Time = 0.022

    Collisions                      = 5745

    Number of DSMC particles        = 47581
    Number of stuck particles       = 0
    Number of free particles        = 47581
    Average linear kinetic energy   = 5.233467022e-20
    Average rotational energy       = 3.447471896e-20
    Average vibrational energy      = 0
    Average electronic energy       = 0
    Total energy                    = 0.00177435483

Stage 1.0  ExecutionTime = 127.66 s  ClockTime = 128 s  Iteration 2200 (0.06 s)

Time = 0.023

    Collisions                      = 5951

    Number of DSMC particles        = 47581
    Number of stuck particles       = 0
    Number of free particles        = 47581
    Average linear kinetic energy   = 5.271762349e-20
    Average rotational energy       = 3.454788039e-20
    Average vibrational energy      = 0
    Average electronic energy       = 0
    Total energy                    = 0.001783677662

Stage 1.0  ExecutionTime = 133.39 s  ClockTime = 134 s  Iteration 2300 (0.06 s)

Time = 0.024

    Collisions                      = 5840

    Number of DSMC particles        = 47581
    Number of stuck particles       = 0
    Number of free particles        = 47581
    Average linear kinetic energy   = 5.291095556e-20
    Average rotational energy       = 3.457870926e-20
    Average vibrational energy      = 0
    Average electronic energy       = 0
    Total energy                    = 0.001788259436

Stage 1.0  ExecutionTime = 139.11 s  ClockTime = 139 s  Iteration 2400 (0.06 s)

Time = 0.025

    Collisions                      = 5917

    Number of DSMC particles        = 47581
    Number of stuck particles       = 0
    Number of free particles        = 47581
    Average linear kinetic energy   = 5.227991341e-20
    Average rotational energy       = 3.43459674e-20
    Average vibrational energy      = 0
    Average electronic energy       = 0
    Total energy                    = 0.001770603981

Stage 1.0  ExecutionTime = 144.84 s  ClockTime = 145 s  Iteration 2500 (0.06 s)

Time = 0.026

    Collisions                      = 5887

    Number of DSMC particles        = 47581
    Number of stuck particles       = 0
    Number of free particles        = 47581
    Average linear kinetic energy   = 5.234340275e-20
    Average rotational energy       = 3.454539511e-20
    Average vibrational energy      = 0
    Average electronic energy       = 0
    Total energy                    = 0.001775977917

Stage 1.0  ExecutionTime = 150.56 s  ClockTime = 151 s  Iteration 2600 (0.06 s)

Time = 0.027

    Collisions                      = 5882

    Number of DSMC particles        = 47581
    Number of stuck particles       = 0
    Number of free particles        = 47581
    Average linear kinetic energy   = 5.236838277e-20
    Average rotational energy       = 3.44654254e-20
    Average vibrational energy      = 0
    Average electronic energy       = 0
    Total energy                    = 0.001774853946

Stage 1.0  ExecutionTime = 156.33 s  ClockTime = 157 s  Iteration 2700 (0.06 s)

Time = 0.028

    Collisions                      = 5885

    Number of DSMC particles        = 47581
    Number of stuck particles       = 0
    Number of free particles        = 47581
    Average linear kinetic energy   = 5.253471358e-20
    Average rotational energy       = 3.440822879e-20
    Average vibrational energy      = 0
    Average electronic energy       = 0
    Total energy                    = 0.001777084613

Stage 1.0  ExecutionTime = 162.05 s  ClockTime = 162 s  Iteration 2800 (0.06 s)

Time = 0.029

    Collisions                      = 5870

    Number of DSMC particles        = 47581
    Number of stuck particles       = 0
    Number of free particles        = 47581
    Average linear kinetic energy   = 5.257370526e-20
    Average rotational energy       = 3.453022035e-20
    Average vibrational energy      = 0
    Average electronic energy       = 0
    Total energy                    = 0.001780375056

Stage 1.0  ExecutionTime = 167.75 s  ClockTime = 168 s  Iteration 2900 (0.06 s)

Time = 0.03

    Collisions                      = 5938

    Number of DSMC particles        = 47581
    Number of stuck particles       = 0
    Number of free particles        = 47581
    Average linear kinetic energy   = 5.228273701e-20
    Average rotational energy       = 3.451118331e-20
    Average vibrational energy      = 0
    Average electronic energy       = 0
    Total energy                    = 0.001774038652

Stage 1.0  ExecutionTime = 173.52 s  ClockTime = 174 s  Iteration 3000 (0.06 s)

Time = 0.031

    Collisions                      = 5909

    Number of DSMC particles        = 47581
    Number of stuck particles       = 0
    Number of free particles        = 47581
    Average linear kinetic energy   = 5.229790235e-20
    Average rotational energy       = 3.408084306e-20
    Average vibrational energy      = 0
    Average electronic energy       = 0
    Total energy                    = 0.001765552616

Stage 1.0  ExecutionTime = 179.21 s  ClockTime = 180 s  Iteration 3100 (0.07 s)

Time = 0.032

    Collisions                      = 5810

    Number of DSMC particles        = 47581
    Number of stuck particles       = 0
    Number of free particles        = 47581
    Average linear kinetic energy   = 5.210837383e-20
    Average rotational energy       = 3.429244475e-20
    Average vibrational energy      = 0
    Average electronic energy       = 0
    Total energy                    = 0.001766003784

Stage 1.0  ExecutionTime = 184.91 s  ClockTime = 185 s  Iteration 3200 (0.06 s)

Time = 0.033

    Collisions                      = 5907

    Number of DSMC particles        = 47581
    Number of stuck particles       = 0
    Number of free particles        = 47581
    Average linear kinetic energy   = 5.233230751e-20
    Average rotational energy       = 3.457705049e-20
    Average vibrational energy      = 0
    Average electronic energy       = 0
    Total energy                    = 0.00177639816

Stage 1.0  ExecutionTime = 190.65 s  ClockTime = 191 s  Iteration 3300 (0.06 s)

Time = 0.034

    Collisions                      = 5859

    Number of DSMC particles        = 47581
    Number of stuck particles       = 0
    Number of free particles        = 47581
    Average linear kinetic energy   = 5.195242647e-20
    Average rotational energy       = 3.456166114e-20
    Average vibrational energy      = 0
    Average electronic energy       = 0
    Total energy                    = 0.001768318965

Stage 1.0  ExecutionTime = 196.4 s  ClockTime = 197 s  Iteration 3400 (0.06 s)

Time = 0.035

    Collisions                      = 5909

    Number of DSMC particles        = 47581
    Number of stuck particles       = 0
    Number of free particles        = 47581
    Average linear kinetic energy   = 5.218611078e-20
    Average rotational energy       = 3.414377715e-20
    Average vibrational energy      = 0
    Average electronic energy       = 0
    Total energy                    = 0.001764553985

Stage 1.0  ExecutionTime = 202.17 s  ClockTime = 203 s  Iteration 3500 (0.06 s)

Time = 0.036

    Collisions                      = 5930

    Number of DSMC particles        = 47581
    Number of stuck particles       = 0
    Number of free particles        = 47581
    Average linear kinetic energy   = 5.257538865e-20
    Average rotational energy       = 3.402682367e-20
    Average vibrational energy      = 0
    Average electronic energy       = 0
    Total energy                    = 0.001770120205

Stage 1.0  ExecutionTime = 207.9 s  ClockTime = 208 s  Iteration 3600 (0.06 s)

Time = 0.037

    Collisions                      = 5959

    Number of DSMC particles        = 47581
    Number of stuck particles       = 0
    Number of free particles        = 47581
    Average linear kinetic energy   = 5.247203764e-20
    Average rotational energy       = 3.416447568e-20
    Average vibrational energy      = 0
    Average electronic energy       = 0
    Total energy                    = 0.001770821306

Stage 1.0  ExecutionTime = 213.63 s  ClockTime = 214 s  Iteration 3700 (0.06 s)

Time = 0.038

    Collisions                      = 5890

    Number of DSMC particles        = 47581
    Number of stuck particles       = 0
    Number of free particles        = 47581
    Average linear kinetic energy   = 5.234250371e-20
    Average rotational energy       = 3.433978089e-20
    Average vibrational energy      = 0
    Average electronic energy       = 0
    Total energy                    = 0.001771756855

Stage 1.0  ExecutionTime = 219.35 s  ClockTime = 220 s  Iteration 3800 (0.06 s)

Time = 0.039

    Collisions                      = 5847

    Number of DSMC particles        = 47581
    Number of stuck particles       = 0
    Number of free particles        = 47581
    Average linear kinetic energy   = 5.239589873e-20
    Average rotational energy       = 3.454188585e-20
    Average vibrational energy      = 0
    Average electronic energy       = 0
    Total energy                    = 0.001776979189

Stage 1.0  ExecutionTime = 225.05 s  ClockTime = 225 s  Iteration 3900 (0.06 s)

Time = 0.04

    Collisions                      = 5926

    Number of DSMC particles        = 47581
    Number of stuck particles       = 0
    Number of free particles        = 47581
    Average linear kinetic energy   = 5.213195183e-20
    Average rotational energy       = 3.462330115e-20
    Average vibrational energy      = 0
    Average electronic energy       = 0
    Total energy                    = 0.001773248304

Stage 1.0  ExecutionTime = 230.77 s  ClockTime = 231 s  Iteration 4000 (0.06 s)

Time = 0.041

    Collisions                      = 5846

    Number of DSMC particles        = 47581
    Number of stuck particles       = 0
    Number of free particles        = 47581
    Average linear kinetic energy   = 5.22155746e-20
    Average rotational energy       = 3.467706352e-20
    Average vibrational energy      = 0
    Average electronic energy       = 0
    Total energy                    = 0.001776056411

Stage 1.0  ExecutionTime = 236.52 s  ClockTime = 237 s  Iteration 4100 (0.07 s)

Time = 0.042

    Collisions                      = 5876

    Number of DSMC particles        = 47581
    Number of stuck particles       = 0
    Number of free particles        = 47581
    Average linear kinetic energy   = 5.263461045e-20
    Average rotational energy       = 3.443683187e-20
    Average vibrational energy      = 0
    Average electronic energy       = 0
    Total energy                    = 0.001779711109

Stage 1.0  ExecutionTime = 242.26 s  ClockTime = 243 s  Iteration 4200 (0.06 s)

Time = 0.043

    Collisions                      = 5947

    Number of DSMC particles        = 47581
    Number of stuck particles       = 0
    Number of free particles        = 47581
    Average linear kinetic energy   = 5.214561951e-20
    Average rotational energy       = 3.444446688e-20
    Average vibrational energy      = 0
    Average electronic energy       = 0
    Total energy                    = 0.001769872355

Stage 1.0  ExecutionTime = 248 s  ClockTime = 248 s  Iteration 4300 (0.07 s)

Time = 0.044

    Collisions                      = 5893

    Number of DSMC particles        = 47581
    Number of stuck particles       = 0
    Number of free particles        = 47581
    Average linear kinetic energy   = 5.201632051e-20
    Average rotational energy       = 3.43373735e-20
    Average vibrational energy      = 0
    Average electronic energy       = 0
    Total energy                    = 0.001765040574

Stage 1.0  ExecutionTime = 253.71 s  ClockTime = 254 s  Iteration 4400 (0.06 s)

Time = 0.045

    Collisions                      = 5877

    Number of DSMC particles        = 47581
    Number of stuck particles       = 0
    Number of free particles        = 47581
    Average linear kinetic energy   = 5.237386487e-20
    Average rotational energy       = 3.429455801e-20
    Average vibrational energy      = 0
    Average electronic energy       = 0
    Total energy                    = 0.001771473526

Stage 1.0  ExecutionTime = 259.42 s  ClockTime = 260 s  Iteration 4500 (0.06 s)

Time = 0.046

    Collisions                      = 5942

    Number of DSMC particles        = 47581
    Number of stuck particles       = 0
    Number of free particles        = 47581
    Average linear kinetic energy   = 5.198245485e-20
    Average rotational energy       = 3.477619501e-20
    Average vibrational energy      = 0
    Average electronic energy       = 0
    Total energy                    = 0.001773317736

Stage 1.0  ExecutionTime = 265.13 s  ClockTime = 266 s  Iteration 4600 (0.06 s)

Time = 0.047

    Collisions                      = 5895

    Number of DSMC particles        = 47581
    Number of stuck particles       = 0
    Number of free particles        = 47581
    Average linear kinetic energy   = 5.230650878e-20
    Average rotational energy       = 3.447872614e-20
    Average vibrational energy      = 0
    Average electronic energy       = 0
    Total energy                    = 0.001773861125

Stage 1.0  ExecutionTime = 270.85 s  ClockTime = 271 s  Iteration 4700 (0.06 s)

Time = 0.048

    Collisions                      = 5894

    Number of DSMC particles        = 47581
    Number of stuck particles       = 0
    Number of free particles        = 47581
    Average linear kinetic energy   = 5.218791847e-20
    Average rotational energy       = 3.415358512e-20
    Average vibrational energy      = 0
    Average electronic energy       = 0
    Total energy                    = 0.001764791406

Stage 1.0  ExecutionTime = 276.57 s  ClockTime = 277 s  Iteration 4800 (0.06 s)

Time = 0.049

    Collisions                      = 5796

    Number of DSMC particles        = 47581
    Number of stuck particles       = 0
    Number of free particles        = 47581
    Average linear kinetic energy   = 5.202274101e-20
    Average rotational energy       = 3.435016059e-20
    Average vibrational energy      = 0
    Average electronic energy       = 0
    Total energy                    = 0.00176543317

Stage 1.0  ExecutionTime = 282.24 s  ClockTime = 283 s  Iteration 4900 (0.06 s)

Time = 0.05

    Collisions                      = 5907

    Number of DSMC particles        = 47581
    Number of stuck particles       = 0
    Number of free particles        = 47581
    Average linear kinetic energy   = 5.202904023e-20
    Average rotational energy       = 3.400756074e-20
    Average vibrational energy      = 0
    Average electronic energy       = 0
    Total energy                    = 0.001758559298

Stage 1.0  ExecutionTime = 287.94 s  ClockTime = 288 s  Iteration 5000 (0.06 s)

Time = 0.051

    Collisions                      = 5895

    Number of DSMC particles        = 47581
    Number of stuck particles       = 0
    Number of free particles        = 47581
    Average linear kinetic energy   = 5.229004438e-20
    Average rotational energy       = 3.439823691e-20
    Average vibrational energy      = 0
    Average electronic energy       = 0
    Total energy                    = 0.001771879425

Stage 1.0  ExecutionTime = 293.65 s  ClockTime = 294 s  Iteration 5100 (0.06 s)

Time = 0.052

    Collisions                      = 5924

    Number of DSMC particles        = 47581
    Number of stuck particles       = 0
    Number of free particles        = 47581
    Average linear kinetic energy   = 5.239797268e-20
    Average rotational energy       = 3.42211969e-20
    Average vibrational energy      = 0
    Average electronic energy       = 0
    Total energy                    = 0.001770466805

Stage 1.0  ExecutionTime = 299.41 s  ClockTime = 300 s  Iteration 5200 (0.06 s)

Time = 0.053

    Collisions                      = 5932

    Number of DSMC particles        = 47581
    Number of stuck particles       = 0
    Number of free particles        = 47581
    Average linear kinetic energy   = 5.22953226e-20
    Average rotational energy       = 3.434089482e-20
    Average vibrational energy      = 0
    Average electronic energy       = 0
    Total energy                    = 0.001770815258

Stage 1.0  ExecutionTime = 305.13 s  ClockTime = 306 s  Iteration 5300 (0.06 s)

Time = 0.054

    Collisions                      = 5812

    Number of DSMC particles        = 47581
    Number of stuck particles       = 0
    Number of free particles        = 47581
    Average linear kinetic energy   = 5.217226576e-20
    Average rotational energy       = 3.481019959e-20
    Average vibrational energy      = 0
    Average electronic energy       = 0
    Total energy                    = 0.001777892449

Stage 1.0  ExecutionTime = 310.88 s  ClockTime = 311 s  Iteration 5400 (0.06 s)

Time = 0.055

    Collisions                      = 5862

    Number of DSMC particles        = 47581
    Number of stuck particles       = 0
    Number of free particles        = 47581
    Average linear kinetic energy   = 5.220552061e-20
    Average rotational energy       = 3.463924467e-20
    Average vibrational energy      = 0
    Average electronic energy       = 0
    Total energy                    = 0.001775077906

Stage 1.0  ExecutionTime = 316.59 s  ClockTime = 317 s  Iteration 5500 (0.06 s)

Time = 0.056

    Collisions                      = 5934

    Number of DSMC particles        = 47581
    Number of stuck particles       = 0
    Number of free particles        = 47581
    Average linear kinetic energy   = 5.234655392e-20
    Average rotational energy       = 3.446430679e-20
    Average vibrational energy      = 0
    Average electronic energy       = 0
    Total energy                    = 0.001774384908

Stage 1.0  ExecutionTime = 322.34 s  ClockTime = 323 s  Iteration 5600 (0.06 s)

Time = 0.057

    Collisions                      = 5991

    Number of DSMC particles        = 47581
    Number of stuck particles       = 0
    Number of free particles        = 47581
    Average linear kinetic energy   = 5.224372194e-20
    Average rotational energy       = 3.450169981e-20
    Average vibrational energy      = 0
    Average electronic energy       = 0
    Total energy                    = 0.001773047357

Stage 1.0  ExecutionTime = 328.08 s  ClockTime = 328 s  Iteration 5700 (0.06 s)

Time = 0.058

    Collisions                      = 5880

    Number of DSMC particles        = 47581
    Number of stuck particles       = 0
    Number of free particles        = 47581
    Average linear kinetic energy   = 5.23011136e-20
    Average rotational energy       = 3.455500525e-20
    Average vibrational energy      = 0
    Average electronic energy       = 0
    Total energy                    = 0.001775309969

Stage 1.0  ExecutionTime = 333.83 s  ClockTime = 334 s  Iteration 5800 (0.06 s)

Time = 0.059

    Collisions                      = 5819

    Number of DSMC particles        = 47581
    Number of stuck particles       = 0
    Number of free particles        = 47581
    Average linear kinetic energy   = 5.215436351e-20
    Average rotational energy       = 3.446061988e-20
    Average vibrational energy      = 0
    Average electronic energy       = 0
    Total energy                    = 0.001770381241

Stage 1.0  ExecutionTime = 339.55 s  ClockTime = 340 s  Iteration 5900 (0.06 s)

Time = 0.06

    Collisions                      = 5899

    Number of DSMC particles        = 47581
    Number of stuck particles       = 0
    Number of free particles        = 47581
    Average linear kinetic energy   = 5.264136958e-20
    Average rotational energy       = 3.418498636e-20
    Average vibrational energy      = 0
    Average electronic energy       = 0
    Total energy                    = 0.001774701625

Stage 1.0  ExecutionTime = 345.25 s  ClockTime = 346 s  Iteration 6000 (0.06 s)

Time = 0.061

    Collisions                      = 5999

    Number of DSMC particles        = 47581
    Number of stuck particles       = 0
    Number of free particles        = 47581
    Average linear kinetic energy   = 5.237328629e-20
    Average rotational energy       = 3.416449589e-20
    Average vibrational energy      = 0
    Average electronic energy       = 0
    Total energy                    = 0.001768803274

Stage 1.0  ExecutionTime = 350.99 s  ClockTime = 351 s  Iteration 6100 (0.06 s)

Time = 0.062

    Collisions                      = 5910

    Number of DSMC particles        = 47581
    Number of stuck particles       = 0
    Number of free particles        = 47581
    Average linear kinetic energy   = 5.250042482e-20
    Average rotational energy       = 3.405238665e-20
    Average vibrational energy      = 0
    Average electronic energy       = 0
    Total energy                    = 0.001769110468

Stage 1.0  ExecutionTime = 356.7 s  ClockTime = 357 s  Iteration 6200 (0.07 s)

Time = 0.063

    Collisions                      = 5933

    Number of DSMC particles        = 47581
    Number of stuck particles       = 0
    Number of free particles        = 47581
    Average linear kinetic energy   = 5.238900061e-20
    Average rotational energy       = 3.426495744e-20
    Average vibrational energy      = 0
    Average electronic energy       = 0
    Total energy                    = 0.00177117787

Stage 1.0  ExecutionTime = 362.45 s  ClockTime = 363 s  Iteration 6300 (0.06 s)

Time = 0.064

    Collisions                      = 5934

    Number of DSMC particles        = 47581
    Number of stuck particles       = 0
    Number of free particles        = 47581
    Average linear kinetic energy   = 5.20478828e-20
    Average rotational energy       = 3.458951384e-20
    Average vibrational energy      = 0
    Average electronic energy       = 0
    Total energy                    = 0.00177083936

Stage 1.0  ExecutionTime = 368.2 s  ClockTime = 369 s  Iteration 6400 (0.06 s)

Time = 0.065

    Collisions                      = 5909

    Number of DSMC particles        = 47581
    Number of stuck particles       = 0
    Number of free particles        = 47581
    Average linear kinetic energy   = 5.204216438e-20
    Average rotational energy       = 3.452215102e-20
    Average vibrational energy      = 0
    Average electronic energy       = 0
    Total energy                    = 0.001769345604

Stage 1.0  ExecutionTime = 373.93 s  ClockTime = 374 s  Iteration 6500 (0.06 s)

Time = 0.066

    Collisions                      = 5795

    Number of DSMC particles        = 47581
    Number of stuck particles       = 0
    Number of free particles        = 47581
    Average linear kinetic energy   = 5.198260416e-20
    Average rotational energy       = 3.423187613e-20
    Average vibrational energy      = 0
    Average electronic energy       = 0
    Total energy                    = 0.001762195092

Stage 1.0  ExecutionTime = 379.68 s  ClockTime = 380 s  Iteration 6600 (0.06 s)

Time = 0.067

    Collisions                      = 5923

    Number of DSMC particles        = 47581
    Number of stuck particles       = 0
    Number of free particles        = 47581
    Average linear kinetic energy   = 5.191048202e-20
    Average rotational energy       = 3.428734365e-20
    Average vibrational energy      = 0
    Average electronic energy       = 0
    Total energy                    = 0.001761854677

Stage 1.0  ExecutionTime = 385.4 s  ClockTime = 386 s  Iteration 6700 (0.06 s)

Time = 0.068

    Collisions                      = 5801

    Number of DSMC particles        = 47581
    Number of stuck particles       = 0
    Number of free particles        = 47581
    Average linear kinetic energy   = 5.196243536e-20
    Average rotational energy       = 3.424196478e-20
    Average vibrational energy      = 0
    Average electronic energy       = 0
    Total energy                    = 0.001761989057

Stage 1.0  ExecutionTime = 391.1 s  ClockTime = 391 s  Iteration 6800 (0.06 s)

Time = 0.069

    Collisions                      = 5952

    Number of DSMC particles        = 47581
    Number of stuck particles       = 0
    Number of free particles        = 47581
    Average linear kinetic energy   = 5.233938764e-20
    Average rotational energy       = 3.427688563e-20
    Average vibrational energy      = 0
    Average electronic energy       = 0
    Total energy                    = 0.001770407606

Stage 1.0  ExecutionTime = 396.84 s  ClockTime = 397 s  Iteration 6900 (0.06 s)

Time = 0.07

    Collisions                      = 5934

    Number of DSMC particles        = 47581
    Number of stuck particles       = 0
    Number of free particles        = 47581
    Average linear kinetic energy   = 5.258501116e-20
    Average rotational energy       = 3.43291635e-20
    Average vibrational energy      = 0
    Average electronic energy       = 0
    Total energy                    = 0.00177649661

Stage 1.0  ExecutionTime = 402.56 s  ClockTime = 403 s  Iteration 7000 (0.06 s)

Time = 0.071

    Collisions                      = 5916

    Number of DSMC particles        = 47581
    Number of stuck particles       = 0
    Number of free particles        = 47581
    Average linear kinetic energy   = 5.218773357e-20
    Average rotational energy       = 3.469267898e-20
    Average vibrational energy      = 0
    Average electronic energy       = 0
    Total energy                    = 0.001775806524

Stage 1.0  ExecutionTime = 408.27 s  ClockTime = 409 s  Iteration 7100 (0.06 s)

Time = 0.072

    Collisions                      = 5896

    Number of DSMC particles        = 47581
    Number of stuck particles       = 0
    Number of free particles        = 47581
    Average linear kinetic energy   = 5.201409578e-20
    Average rotational energy       = 3.446869562e-20
    Average vibrational energy      = 0
    Average electronic energy       = 0
    Total energy                    = 0.001767679281

Stage 1.0  ExecutionTime = 413.97 s  ClockTime = 414 s  Iteration 7200 (0.06 s)

Time = 0.073

    Collisions                      = 5857

    Number of DSMC particles        = 47581
    Number of stuck particles       = 0
    Number of free particles        = 47581
    Average linear kinetic energy   = 5.22089218e-20
    Average rotational energy       = 3.405667252e-20
    Average vibrational energy      = 0
    Average electronic energy       = 0
    Total energy                    = 0.001763239846

Stage 1.0  ExecutionTime = 419.7 s  ClockTime = 420 s  Iteration 7300 (0.06 s)

Time = 0.074

    Collisions                      = 5896

    Number of DSMC particles        = 47581
    Number of stuck particles       = 0
    Number of free particles        = 47581
    Average linear kinetic energy   = 5.18199591e-20
    Average rotational energy       = 3.46465962e-20
    Average vibrational energy      = 0
    Average electronic energy       = 0
    Total energy                    = 0.001767347421

Stage 1.0  ExecutionTime = 425.42 s  ClockTime = 426 s  Iteration 7400 (0.06 s)

Time = 0.075

    Collisions                      = 5848

    Number of DSMC particles        = 47581
    Number of stuck particles       = 0
    Number of free particles        = 47581
    Average linear kinetic energy   = 5.187721386e-20
    Average rotational energy       = 3.425000093e-20
    Average vibrational energy      = 0
    Average electronic energy       = 0
    Total energy                    = 0.001760411414

Stage 1.0  ExecutionTime = 431.13 s  ClockTime = 432 s  Iteration 7500 (0.06 s)

Time = 0.076

    Collisions                      = 5851

    Number of DSMC particles        = 47581
    Number of stuck particles       = 0
    Number of free particles        = 47581
    Average linear kinetic energy   = 5.201347225e-20
    Average rotational energy       = 3.42204375e-20
    Average vibrational energy      = 0
    Average electronic energy       = 0
    Total energy                    = 0.001762592224

Stage 1.0  ExecutionTime = 436.85 s  ClockTime = 437 s  Iteration 7600 (0.06 s)

Time = 0.077

    Collisions                      = 5881

    Number of DSMC particles        = 47581
    Number of stuck particles       = 0
    Number of free particles        = 47581
    Average linear kinetic energy   = 5.187255446e-20
    Average rotational energy       = 3.437120963e-20
    Average vibrational energy      = 0
    Average electronic energy       = 0
    Total energy                    = 0.001762793643

Stage 1.0  ExecutionTime = 442.61 s  ClockTime = 443 s  Iteration 7700 (0.06 s)

Time = 0.078

    Collisions                      = 6020

    Number of DSMC particles        = 47581
    Number of stuck particles       = 0
    Number of free particles        = 47581
    Average linear kinetic energy   = 5.24366539e-20
    Average rotational energy       = 3.438867985e-20
    Average vibrational energy      = 0
    Average electronic energy       = 0
    Total energy                    = 0.001774680732

Stage 1.0  ExecutionTime = 448.31 s  ClockTime = 449 s  Iteration 7800 (0.06 s)

Time = 0.079

    Collisions                      = 5834

    Number of DSMC particles        = 47581
    Number of stuck particles       = 0
    Number of free particles        = 47581
    Average linear kinetic energy   = 5.239963737e-20
    Average rotational energy       = 3.468378384e-20
    Average vibrational energy      = 0
    Average electronic energy       = 0
    Total energy                    = 0.001779955953

Stage 1.0  ExecutionTime = 454.12 s  ClockTime = 455 s  Iteration 7900 (0.06 s)

Time = 0.08

    Collisions                      = 5934

    Number of DSMC particles        = 47581
    Number of stuck particles       = 0
    Number of free particles        = 47581
    Average linear kinetic energy   = 5.226084766e-20
    Average rotational energy       = 3.440412387e-20
    Average vibrational energy      = 0
    Average electronic energy       = 0
    Total energy                    = 0.001771402982

Stage 1.0  ExecutionTime = 459.86 s  ClockTime = 460 s  Iteration 8000 (0.06 s)

Time = 0.081

    Collisions                      = 5910

    Number of DSMC particles        = 47581
    Number of stuck particles       = 0
    Number of free particles        = 47581
    Average linear kinetic energy   = 5.208774144e-20
    Average rotational energy       = 3.44065046e-20
    Average vibrational energy      = 0
    Average electronic energy       = 0
    Total energy                    = 0.00176791341

Stage 1.0  ExecutionTime = 465.61 s  ClockTime = 466 s  Iteration 8100 (0.07 s)

Time = 0.082

    Collisions                      = 5952

    Number of DSMC particles        = 47581
    Number of stuck particles       = 0
    Number of free particles        = 47581
    Average linear kinetic energy   = 5.204137351e-20
    Average rotational energy       = 3.435573808e-20
    Average vibrational energy      = 0
    Average electronic energy       = 0
    Total energy                    = 0.001765928014

Stage 1.0  ExecutionTime = 471.31 s  ClockTime = 472 s  Iteration 8200 (0.06 s)

Time = 0.083

    Collisions                      = 5801

    Number of DSMC particles        = 47581
    Number of stuck particles       = 0
    Number of free particles        = 47581
    Average linear kinetic energy   = 5.170212312e-20
    Average rotational energy       = 3.424625598e-20
    Average vibrational energy      = 0
    Average electronic energy       = 0
    Total energy                    = 0.001756756073

Stage 1.0  ExecutionTime = 477.05 s  ClockTime = 477 s  Iteration 8300 (0.06 s)

Time = 0.084

    Collisions                      = 5851

    Number of DSMC particles        = 47581
    Number of stuck particles       = 0
    Number of free particles        = 47581
    Average linear kinetic energy   = 5.18549672e-20
    Average rotational energy       = 3.424665811e-20
    Average vibrational energy      = 0
    Average electronic energy       = 0
    Total energy                    = 0.001759888374

Stage 1.0  ExecutionTime = 482.76 s  ClockTime = 483 s  Iteration 8400 (0.06 s)

Time = 0.085

    Collisions                      = 5880

    Number of DSMC particles        = 47581
    Number of stuck particles       = 0
    Number of free particles        = 47581
    Average linear kinetic energy   = 5.189597092e-20
    Average rotational energy       = 3.439564896e-20
    Average vibrational energy      = 0
    Average electronic energy       = 0
    Total energy                    = 0.001763771799

Stage 1.0  ExecutionTime = 488.62 s  ClockTime = 489 s  Iteration 8500 (0.06 s)

Time = 0.086

    Collisions                      = 5826

    Number of DSMC particles        = 47581
    Number of stuck particles       = 0
    Number of free particles        = 47581
    Average linear kinetic energy   = 5.205011631e-20
    Average rotational energy       = 3.451841557e-20
    Average vibrational energy      = 0
    Average electronic energy       = 0
    Total energy                    = 0.001769431788

Stage 1.0  ExecutionTime = 494.45 s  ClockTime = 495 s  Iteration 8600 (0.06 s)

Time = 0.087

    Collisions                      = 5900

    Number of DSMC particles        = 47581
    Number of stuck particles       = 0
    Number of free particles        = 47581
    Average linear kinetic energy   = 5.189362257e-20
    Average rotational energy       = 3.451823087e-20
    Average vibrational energy      = 0
    Average electronic energy       = 0
    Total energy                    = 0.001766229333

Stage 1.0  ExecutionTime = 500.22 s  ClockTime = 501 s  Iteration 8700 (0.06 s)

Time = 0.088

    Collisions                      = 5943

    Number of DSMC particles        = 47581
    Number of stuck particles       = 0
    Number of free particles        = 47581
    Average linear kinetic energy   = 5.208258041e-20
    Average rotational energy       = 3.432249629e-20
    Average vibrational energy      = 0
    Average electronic energy       = 0
    Total energy                    = 0.001766090819

Stage 1.0  ExecutionTime = 506.01 s  ClockTime = 506 s  Iteration 8800 (0.06 s)

Time = 0.089

    Collisions                      = 5794

    Number of DSMC particles        = 47581
    Number of stuck particles       = 0
    Number of free particles        = 47581
    Average linear kinetic energy   = 5.217174075e-20
    Average rotational energy       = 3.435885908e-20
    Average vibrational energy      = 0
    Average electronic energy       = 0
    Total energy                    = 0.001768656469

Stage 1.0  ExecutionTime = 511.97 s  ClockTime = 512 s  Iteration 8900 (0.07 s)

Time = 0.09

    Collisions                      = 5921

    Number of DSMC particles        = 47581
    Number of stuck particles       = 0
    Number of free particles        = 47581
    Average linear kinetic energy   = 5.234503651e-20
    Average rotational energy       = 3.440171907e-20
    Average vibrational energy      = 0
    Average electronic energy       = 0
    Total energy                    = 0.00177307462

Stage 1.0  ExecutionTime = 517.99 s  ClockTime = 518 s  Iteration 9000 (0.1 s)

Time = 0.091

    Collisions                      = 5765

    Number of DSMC particles        = 47581
    Number of stuck particles       = 0
    Number of free particles        = 47581
    Average linear kinetic energy   = 5.216225781e-20
    Average rotational energy       = 3.456654014e-20
    Average vibrational energy      = 0
    Average electronic energy       = 0
    Total energy                    = 0.001772707572

Stage 1.0  ExecutionTime = 524.05 s  ClockTime = 524 s  Iteration 9100 (0.06 s)

Time = 0.092

    Collisions                      = 5956

    Number of DSMC particles        = 47581
    Number of stuck particles       = 0
    Number of free particles        = 47581
    Average linear kinetic energy   = 5.241562021e-20
    Average rotational energy       = 3.448382415e-20
    Average vibrational energy      = 0
    Average electronic energy       = 0
    Total energy                    = 0.001776195528

Stage 1.0  ExecutionTime = 529.95 s  ClockTime = 530 s  Iteration 9200 (0.06 s)

Time = 0.093

    Collisions                      = 5961

    Number of DSMC particles        = 47581
    Number of stuck particles       = 0
    Number of free particles        = 47581
    Average linear kinetic energy   = 5.25366191e-20
    Average rotational energy       = 3.459385558e-20
    Average vibrational energy      = 0
    Average electronic energy       = 0
    Total energy                    = 0.00178091771

Stage 1.0  ExecutionTime = 535.78 s  ClockTime = 536 s  Iteration 9300 (0.06 s)

Time = 0.094

    Collisions                      = 5817

    Number of DSMC particles        = 47581
    Number of stuck particles       = 0
    Number of free particles        = 47581
    Average linear kinetic energy   = 5.269018025e-20
    Average rotational energy       = 3.474809745e-20
    Average vibrational energy      = 0
    Average electronic energy       = 0
    Total energy                    = 0.001787209101

Stage 1.0  ExecutionTime = 541.58 s  ClockTime = 542 s  Iteration 9400 (0.07 s)

Time = 0.095

    Collisions                      = 5951

    Number of DSMC particles        = 47581
    Number of stuck particles       = 0
    Number of free particles        = 47581
    Average linear kinetic energy   = 5.266441416e-20
    Average rotational energy       = 3.437615318e-20
    Average vibrational energy      = 0
    Average electronic energy       = 0
    Total energy                    = 0.001779080034

Stage 1.0  ExecutionTime = 547.45 s  ClockTime = 548 s  Iteration 9500 (0.06 s)

Time = 0.096

    Collisions                      = 5787

    Number of DSMC particles        = 47581
    Number of stuck particles       = 0
    Number of free particles        = 47581
    Average linear kinetic energy   = 5.204821732e-20
    Average rotational energy       = 3.464409206e-20
    Average vibrational energy      = 0
    Average electronic energy       = 0
    Total energy                    = 0.001771961758

Stage 1.0  ExecutionTime = 553.19 s  ClockTime = 554 s  Iteration 9600 (0.06 s)

Time = 0.097

    Collisions                      = 5835

    Number of DSMC particles        = 47581
    Number of stuck particles       = 0
    Number of free particles        = 47581
    Average linear kinetic energy   = 5.219734051e-20
    Average rotational energy       = 3.4462471e-20
    Average vibrational energy      = 0
    Average electronic energy       = 0
    Total energy                    = 0.001771297513

Stage 1.0  ExecutionTime = 558.93 s  ClockTime = 559 s  Iteration 9700 (0.06 s)

Time = 0.098

    Collisions                      = 5858

    Number of DSMC particles        = 47581
    Number of stuck particles       = 0
    Number of free particles        = 47581
    Average linear kinetic energy   = 5.20079632e-20
    Average rotational energy       = 3.4441864e-20
    Average vibrational energy      = 0
    Average electronic energy       = 0
    Total energy                    = 0.001767005504

Stage 1.0  ExecutionTime = 564.69 s  ClockTime = 565 s  Iteration 9800 (0.06 s)

Time = 0.099

    Collisions                      = 5803

    Number of DSMC particles        = 47581
    Number of stuck particles       = 0
    Number of free particles        = 47581
    Average linear kinetic energy   = 5.19975741e-20
    Average rotational energy       = 3.452530694e-20
    Average vibrational energy      = 0
    Average electronic energy       = 0
    Total energy                    = 0.0017684987

Stage 1.0  ExecutionTime = 570.46 s  ClockTime = 571 s  Iteration 9900 (0.06 s)

Time = 0.1

    Collisions                      = 5929

    Number of DSMC particles        = 47581
    Number of stuck particles       = 0
    Number of free particles        = 47581
    Average linear kinetic energy   = 5.20277967e-20
    Average rotational energy       = 3.432900762e-20
    Average vibrational energy      = 0
    Average electronic energy       = 0
    Total energy                    = 0.001765104147

Stage 1.0  ExecutionTime = 576.23 s  ClockTime = 577 s  Iteration 10000 (0.06 s)

Time = 0.101

    Collisions                      = 5949

    Number of DSMC particles        = 47581
    Number of stuck particles       = 0
    Number of free particles        = 47581
    Average linear kinetic energy   = 5.209516488e-20
    Average rotational energy       = 3.450373107e-20
    Average vibrational energy      = 0
    Average electronic energy       = 0
    Total energy                    = 0.001770052419

Stage 1.0  ExecutionTime = 581.99 s  ClockTime = 582 s  Iteration 10100 (0.06 s)

Time = 0.102

    Collisions                      = 5938

    Number of DSMC particles        = 47581
    Number of stuck particles       = 0
    Number of free particles        = 47581
    Average linear kinetic energy   = 5.232432995e-20
    Average rotational energy       = 3.425159813e-20
    Average vibrational energy      = 0
    Average electronic energy       = 0
    Total energy                    = 0.001769582963

Stage 1.0  ExecutionTime = 587.74 s  ClockTime = 588 s  Iteration 10200 (0.06 s)

Time = 0.103

    Collisions                      = 5892

    Number of DSMC particles        = 47581
    Number of stuck particles       = 0
    Number of free particles        = 47581
    Average linear kinetic energy   = 5.240452788e-20
    Average rotational energy       = 3.433418636e-20
    Average vibrational energy      = 0
    Average electronic energy       = 0
    Total energy                    = 0.001772910258

Stage 1.0  ExecutionTime = 593.49 s  ClockTime = 594 s  Iteration 10300 (0.06 s)

Time = 0.104

    Collisions                      = 5815

    Number of DSMC particles        = 47581
    Number of stuck particles       = 0
    Number of free particles        = 47581
    Average linear kinetic energy   = 5.238650557e-20
    Average rotational energy       = 3.437744655e-20
    Average vibrational energy      = 0
    Average electronic energy       = 0
    Total energy                    = 0.001773426112

Stage 1.0  ExecutionTime = 599.24 s  ClockTime = 600 s  Iteration 10400 (0.07 s)

Time = 0.105

    Collisions                      = 5905

    Number of DSMC particles        = 47581
    Number of stuck particles       = 0
    Number of free particles        = 47581
    Average linear kinetic energy   = 5.214730626e-20
    Average rotational energy       = 3.449096885e-20
    Average vibrational energy      = 0
    Average electronic energy       = 0
    Total energy                    = 0.001770857316

Stage 1.0  ExecutionTime = 604.99 s  ClockTime = 605 s  Iteration 10500 (0.06 s)

Time = 0.106

    Collisions                      = 5756

    Number of DSMC particles        = 47581
    Number of stuck particles       = 0
    Number of free particles        = 47581
    Average linear kinetic energy   = 5.213076456e-20
    Average rotational energy       = 3.453097402e-20
    Average vibrational energy      = 0
    Average electronic energy       = 0
    Total energy                    = 0.001771336901

Stage 1.0  ExecutionTime = 610.74 s  ClockTime = 611 s  Iteration 10600 (0.06 s)

Time = 0.107

    Collisions                      = 5891

    Number of DSMC particles        = 47581
    Number of stuck particles       = 0
    Number of free particles        = 47581
    Average linear kinetic energy   = 5.214679382e-20
    Average rotational energy       = 3.458876468e-20
    Average vibrational energy      = 0
    Average electronic energy       = 0
    Total energy                    = 0.001772845756

Stage 1.0  ExecutionTime = 616.5 s  ClockTime = 617 s  Iteration 10700 (0.06 s)

Time = 0.108

    Collisions                      = 5871

    Number of DSMC particles        = 47581
    Number of stuck particles       = 0
    Number of free particles        = 47581
    Average linear kinetic energy   = 5.231638456e-20
    Average rotational energy       = 3.442870858e-20
    Average vibrational energy      = 0
    Average electronic energy       = 0
    Total energy                    = 0.001773040641

Stage 1.0  ExecutionTime = 622.22 s  ClockTime = 623 s  Iteration 10800 (0.06 s)

Time = 0.109

    Collisions                      = 5853

    Number of DSMC particles        = 47581
    Number of stuck particles       = 0
    Number of free particles        = 47581
    Average linear kinetic energy   = 5.210699925e-20
    Average rotational energy       = 3.427670463e-20
    Average vibrational energy      = 0
    Average electronic energy       = 0
    Total energy                    = 0.001765653965

Stage 1.0  ExecutionTime = 627.96 s  ClockTime = 628 s  Iteration 10900 (0.06 s)

Time = 0.11

    Collisions                      = 5831

    Number of DSMC particles        = 47581
    Number of stuck particles       = 0
    Number of free particles        = 47581
    Average linear kinetic energy   = 5.220055332e-20
    Average rotational energy       = 3.427517535e-20
    Average vibrational energy      = 0
    Average electronic energy       = 0
    Total energy                    = 0.001767534921

Stage 1.0  ExecutionTime = 633.72 s  ClockTime = 634 s  Iteration 11000 (0.06 s)

Time = 0.111

    Collisions                      = 5836

    Number of DSMC particles        = 47581
    Number of stuck particles       = 0
    Number of free particles        = 47581
    Average linear kinetic energy   = 5.216146247e-20
    Average rotational energy       = 3.421545812e-20
    Average vibrational energy      = 0
    Average electronic energy       = 0
    Total energy                    = 0.001765515317

Stage 1.0  ExecutionTime = 639.42 s  ClockTime = 640 s  Iteration 11100 (0.06 s)

Time = 0.112

    Collisions                      = 5869

    Number of DSMC particles        = 47581
    Number of stuck particles       = 0
    Number of free particles        = 47581
    Average linear kinetic energy   = 5.231308247e-20
    Average rotational energy       = 3.434010536e-20
    Average vibrational energy      = 0
    Average electronic energy       = 0
    Total energy                    = 0.001771162127

Stage 1.0  ExecutionTime = 645.15 s  ClockTime = 646 s  Iteration 11200 (0.06 s)

Time = 0.113

    Collisions                      = 5887

    Number of DSMC particles        = 47581
    Number of stuck particles       = 0
    Number of free particles        = 47581
    Average linear kinetic energy   = 5.23029073e-20
    Average rotational energy       = 3.438818647e-20
    Average vibrational energy      = 0
    Average electronic energy       = 0
    Total energy                    = 0.001771936912

Stage 1.0  ExecutionTime = 650.89 s  ClockTime = 651 s  Iteration 11300 (0.06 s)

Time = 0.114

    Collisions                      = 5964

    Number of DSMC particles        = 47581
    Number of stuck particles       = 0
    Number of free particles        = 47581
    Average linear kinetic energy   = 5.238938099e-20
    Average rotational energy       = 3.445413624e-20
    Average vibrational energy      = 0
    Average electronic energy       = 0
    Total energy                    = 0.001775052396

Stage 1.0  ExecutionTime = 656.65 s  ClockTime = 657 s  Iteration 11400 (0.06 s)

Time = 0.115

    Collisions                      = 5779

    Number of DSMC particles        = 47581
    Number of stuck particles       = 0
    Number of free particles        = 47581
    Average linear kinetic energy   = 5.232433567e-20
    Average rotational energy       = 3.434613134e-20
    Average vibrational energy      = 0
    Average electronic energy       = 0
    Total energy                    = 0.001771515308

Stage 1.0  ExecutionTime = 662.38 s  ClockTime = 663 s  Iteration 11500 (0.05 s)

Time = 0.116

    Collisions                      = 5819

    Number of DSMC particles        = 47581
    Number of stuck particles       = 0
    Number of free particles        = 47581
    Average linear kinetic energy   = 5.243027906e-20
    Average rotational energy       = 3.439247387e-20
    Average vibrational energy      = 0
    Average electronic energy       = 0
    Total energy                    = 0.001774627981

Stage 1.0  ExecutionTime = 668.12 s  ClockTime = 669 s  Iteration 11600 (0.07 s)

Time = 0.117

    Collisions                      = 5829

    Number of DSMC particles        = 47581
    Number of stuck particles       = 0
    Number of free particles        = 47581
    Average linear kinetic energy   = 5.213685188e-20
    Average rotational energy       = 3.43810561e-20
    Average vibrational energy      = 0
    Average electronic energy       = 0
    Total energy                    = 0.001768397052

Stage 1.0  ExecutionTime = 673.85 s  ClockTime = 674 s  Iteration 11700 (0.06 s)

Time = 0.118

    Collisions                      = 5866

    Number of DSMC particles        = 47581
    Number of stuck particles       = 0
    Number of free particles        = 47581
    Average linear kinetic energy   = 5.230896809e-20
    Average rotational energy       = 3.435145757e-20
    Average vibrational energy      = 0
    Average electronic energy       = 0
    Total energy                    = 0.001771310066

Stage 1.0  ExecutionTime = 679.6 s  ClockTime = 680 s  Iteration 11800 (0.06 s)

Time = 0.119

    Collisions                      = 5903

    Number of DSMC particles        = 47581
    Number of stuck particles       = 0
    Number of free particles        = 47581
    Average linear kinetic energy   = 5.194083782e-20
    Average rotational energy       = 3.450904533e-20
    Average vibrational energy      = 0
    Average electronic energy       = 0
    Total energy                    = 0.001767006647

Stage 1.0  ExecutionTime = 685.34 s  ClockTime = 686 s  Iteration 11900 (0.06 s)

Time = 0.12

    Collisions                      = 5811

    Number of DSMC particles        = 47581
    Number of stuck particles       = 0
    Number of free particles        = 47581
    Average linear kinetic energy   = 5.236403466e-20
    Average rotational energy       = 3.430838617e-20
    Average vibrational energy      = 0
    Average electronic energy       = 0
    Total energy                    = 0.001771555243

Stage 1.0  ExecutionTime = 691.03 s  ClockTime = 691 s  Iteration 12000 (0.06 s)

Time = 0.121

    Collisions                      = 5896

    Number of DSMC particles        = 47581
    Number of stuck particles       = 0
    Number of free particles        = 47581
    Average linear kinetic energy   = 5.232514208e-20
    Average rotational energy       = 3.43771298e-20
    Average vibrational energy      = 0
    Average electronic energy       = 0
    Total energy                    = 0.001772165389

Stage 1.0  ExecutionTime = 696.8 s  ClockTime = 697 s  Iteration 12100 (0.06 s)

Time = 0.122

    Collisions                      = 5865

    Number of DSMC particles        = 47581
    Number of stuck particles       = 0
    Number of free particles        = 47581
    Average linear kinetic energy   = 5.21159012e-20
    Average rotational energy       = 3.444556494e-20
    Average vibrational energy      = 0
    Average electronic energy       = 0
    Total energy                    = 0.001769287366

Stage 1.0  ExecutionTime = 702.57 s  ClockTime = 703 s  Iteration 12200 (0.06 s)

Time = 0.123

    Collisions                      = 5835

    Number of DSMC particles        = 47581
    Number of stuck particles       = 0
    Number of free particles        = 47581
    Average linear kinetic energy   = 5.207160406e-20
    Average rotational energy       = 3.44324218e-20
    Average vibrational energy      = 0
    Average electronic energy       = 0
    Total energy                    = 0.001768113306

Stage 1.0  ExecutionTime = 708.3 s  ClockTime = 709 s  Iteration 12300 (0.06 s)

Time = 0.124

    Collisions                      = 5937

    Number of DSMC particles        = 47581
    Number of stuck particles       = 0
    Number of free particles        = 47581
    Average linear kinetic energy   = 5.234034114e-20
    Average rotational energy       = 3.414436977e-20
    Average vibrational energy      = 0
    Average electronic energy       = 0
    Total energy                    = 0.001767718515

Stage 1.0  ExecutionTime = 714.03 s  ClockTime = 714 s  Iteration 12400 (0.06 s)

Time = 0.125

    Collisions                      = 5967

    Number of DSMC particles        = 47581
    Number of stuck particles       = 0
    Number of free particles        = 47581
    Average linear kinetic energy   = 5.247416263e-20
    Average rotational energy       = 3.432630166e-20
    Average vibrational energy      = 0
    Average electronic energy       = 0
    Total energy                    = 0.001774172408

Stage 1.0  ExecutionTime = 719.8 s  ClockTime = 720 s  Iteration 12500 (0.06 s)

Time = 0.126

    Collisions                      = 5943

    Number of DSMC particles        = 47581
    Number of stuck particles       = 0
    Number of free particles        = 47581
    Average linear kinetic energy   = 5.253864356e-20
    Average rotational energy       = 3.44528402e-20
    Average vibrational energy      = 0
    Average electronic energy       = 0
    Total energy                    = 0.001778076782

Stage 1.0  ExecutionTime = 725.54 s  ClockTime = 726 s  Iteration 12600 (0.06 s)

Time = 0.127

    Collisions                      = 5847

    Number of DSMC particles        = 47581
    Number of stuck particles       = 0
    Number of free particles        = 47581
    Average linear kinetic energy   = 5.232541319e-20
    Average rotational energy       = 3.432860744e-20
    Average vibrational energy      = 0
    Average electronic energy       = 0
    Total energy                    = 0.001771179149

Stage 1.0  ExecutionTime = 731.28 s  ClockTime = 732 s  Iteration 12700 (0.06 s)

Time = 0.128

    Collisions                      = 5895

    Number of DSMC particles        = 47581
    Number of stuck particles       = 0
    Number of free particles        = 47581
    Average linear kinetic energy   = 5.251198138e-20
    Average rotational energy       = 3.454606188e-20
    Average vibrational energy      = 0
    Average electronic energy       = 0
    Total energy                    = 0.001779437236

Stage 1.0  ExecutionTime = 737.01 s  ClockTime = 737 s  Iteration 12800 (0.06 s)

Time = 0.129

    Collisions                      = 5889

    Number of DSMC particles        = 47581
    Number of stuck particles       = 0
    Number of free particles        = 47581
    Average linear kinetic energy   = 5.193354484e-20
    Average rotational energy       = 3.467217002e-20
    Average vibrational energy      = 0
    Average electronic energy       = 0
    Total energy                    = 0.001770191795

Stage 1.0  ExecutionTime = 742.74 s  ClockTime = 743 s  Iteration 12900 (0.06 s)

Time = 0.13

    Collisions                      = 5821

    Number of DSMC particles        = 47581
    Number of stuck particles       = 0
    Number of free particles        = 47581
    Average linear kinetic energy   = 5.214940867e-20
    Average rotational energy       = 3.456809842e-20
    Average vibrational energy      = 0
    Average electronic energy       = 0
    Total energy                    = 0.001772476791

Stage 1.0  ExecutionTime = 748.53 s  ClockTime = 749 s  Iteration 13000 (0.06 s)

Time = 0.131

    Collisions                      = 5874

    Number of DSMC particles        = 47581
    Number of stuck particles       = 0
    Number of free particles        = 47581
    Average linear kinetic energy   = 5.213015169e-20
    Average rotational energy       = 3.440992227e-20
    Average vibrational energy      = 0
    Average electronic energy       = 0
    Total energy                    = 0.001768850117

Stage 1.0  ExecutionTime = 754.28 s  ClockTime = 755 s  Iteration 13100 (0.06 s)

Time = 0.132

    Collisions                      = 5816

    Number of DSMC particles        = 47581
    Number of stuck particles       = 0
    Number of free particles        = 47581
    Average linear kinetic energy   = 5.226358699e-20
    Average rotational energy       = 3.410474619e-20
    Average vibrational energy      = 0
    Average electronic energy       = 0
    Total energy                    = 0.001765339793

Stage 1.0  ExecutionTime = 760.06 s  ClockTime = 760 s  Iteration 13200 (0.06 s)

Time = 0.133

    Collisions                      = 5831

    Number of DSMC particles        = 47581
    Number of stuck particles       = 0
    Number of free particles        = 47581
    Average linear kinetic energy   = 5.223088022e-20
    Average rotational energy       = 3.427553467e-20
    Average vibrational energy      = 0
    Average electronic energy       = 0
    Total energy                    = 0.001768162137

Stage 1.0  ExecutionTime = 765.8 s  ClockTime = 766 s  Iteration 13300 (0.06 s)

Time = 0.134

    Collisions                      = 5917

    Number of DSMC particles        = 47581
    Number of stuck particles       = 0
    Number of free particles        = 47581
    Average linear kinetic energy   = 5.194648564e-20
    Average rotational energy       = 3.440671586e-20
    Average vibrational energy      = 0
    Average electronic energy       = 0
    Total energy                    = 0.001765030507

Stage 1.0  ExecutionTime = 771.57 s  ClockTime = 772 s  Iteration 13400 (0.06 s)

Time = 0.135

    Collisions                      = 5933

    Number of DSMC particles        = 47581
    Number of stuck particles       = 0
    Number of free particles        = 47581
    Average linear kinetic energy   = 5.199021139e-20
    Average rotational energy       = 3.431935107e-20
    Average vibrational energy      = 0
    Average electronic energy       = 0
    Total energy                    = 0.00176413854

Stage 1.0  ExecutionTime = 777.32 s  ClockTime = 778 s  Iteration 13500 (0.06 s)

Time = 0.136

    Collisions                      = 5940

    Number of DSMC particles        = 47581
    Number of stuck particles       = 0
    Number of free particles        = 47581
    Average linear kinetic energy   = 5.23675172e-20
    Average rotational energy       = 3.425011517e-20
    Average vibrational energy      = 0
    Average electronic energy       = 0
    Total energy                    = 0.001770435385

Stage 1.0  ExecutionTime = 783.09 s  ClockTime = 783 s  Iteration 13600 (0.06 s)

Time = 0.137

    Collisions                      = 5906

    Number of DSMC particles        = 47581
    Number of stuck particles       = 0
    Number of free particles        = 47581
    Average linear kinetic energy   = 5.255016658e-20
    Average rotational energy       = 3.430624463e-20
    Average vibrational energy      = 0
    Average electronic energy       = 0
    Total energy                    = 0.001775315945

Stage 1.0  ExecutionTime = 788.85 s  ClockTime = 789 s  Iteration 13700 (0.06 s)

Time = 0.138

    Collisions                      = 5857

    Number of DSMC particles        = 47581
    Number of stuck particles       = 0
    Number of free particles        = 47581
    Average linear kinetic energy   = 5.24087302e-20
    Average rotational energy       = 3.443169793e-20
    Average vibrational energy      = 0
    Average electronic energy       = 0
    Total energy                    = 0.001774989256

Stage 1.0  ExecutionTime = 794.63 s  ClockTime = 795 s  Iteration 13800 (0.06 s)

Time = 0.139

    Collisions                      = 5880

    Number of DSMC particles        = 47581
    Number of stuck particles       = 0
    Number of free particles        = 47581
    Average linear kinetic energy   = 5.226652477e-20
    Average rotational energy       = 3.458931259e-20
    Average vibrational energy      = 0
    Average electronic energy       = 0
    Total energy                    = 0.001775304215

Stage 1.0  ExecutionTime = 800.39 s  ClockTime = 801 s  Iteration 13900 (0.06 s)

Time = 0.14

    Collisions                      = 5843

    Number of DSMC particles        = 47581
    Number of stuck particles       = 0
    Number of free particles        = 47581
    Average linear kinetic energy   = 5.218238458e-20
    Average rotational energy       = 3.443054585e-20
    Average vibrational energy      = 0
    Average electronic energy       = 0
    Total energy                    = 0.001770339279

Stage 1.0  ExecutionTime = 806.2 s  ClockTime = 807 s  Iteration 14000 (0.06 s)

Time = 0.141

    Collisions                      = 5877

    Number of DSMC particles        = 47581
    Number of stuck particles       = 0
    Number of free particles        = 47581
    Average linear kinetic energy   = 5.218490154e-20
    Average rotational energy       = 3.448652363e-20
    Average vibrational energy      = 0
    Average electronic energy       = 0
    Total energy                    = 0.001771534892

Stage 1.0  ExecutionTime = 811.97 s  ClockTime = 812 s  Iteration 14100 (0.06 s)

Time = 0.142

    Collisions                      = 5951

    Number of DSMC particles        = 47581
    Number of stuck particles       = 0
    Number of free particles        = 47581
    Average linear kinetic energy   = 5.236300351e-20
    Average rotational energy       = 3.440887535e-20
    Average vibrational energy      = 0
    Average electronic energy       = 0
    Total energy                    = 0.001773588132

Stage 1.0  ExecutionTime = 817.72 s  ClockTime = 818 s  Iteration 14200 (0.06 s)

Time = 0.143

    Collisions                      = 5859

    Number of DSMC particles        = 47581
    Number of stuck particles       = 0
    Number of free particles        = 47581
    Average linear kinetic energy   = 5.238818997e-20
    Average rotational energy       = 3.436693248e-20
    Average vibrational energy      = 0
    Average electronic energy       = 0
    Total energy                    = 0.001773245636

Stage 1.0  ExecutionTime = 823.46 s  ClockTime = 824 s  Iteration 14300 (0.06 s)

Time = 0.144

    Collisions                      = 5859

    Number of DSMC particles        = 47581
    Number of stuck particles       = 0
    Number of free particles        = 47581
    Average linear kinetic energy   = 5.23337394e-20
    Average rotational energy       = 3.445264645e-20
    Average vibrational energy      = 0
    Average electronic energy       = 0
    Total energy                    = 0.00177388465

Stage 1.0  ExecutionTime = 829.22 s  ClockTime = 830 s  Iteration 14400 (0.06 s)

Time = 0.145

    Collisions                      = 5942

    Number of DSMC particles        = 47581
    Number of stuck particles       = 0
    Number of free particles        = 47581
    Average linear kinetic energy   = 5.243956516e-20
    Average rotational energy       = 3.433752524e-20
    Average vibrational energy      = 0
    Average electronic energy       = 0
    Total energy                    = 0.001773694654

Stage 1.0  ExecutionTime = 834.99 s  ClockTime = 835 s  Iteration 14500 (0.07 s)

Time = 0.146

    Collisions                      = 5935

    Number of DSMC particles        = 47581
    Number of stuck particles       = 0
    Number of free particles        = 47581
    Average linear kinetic energy   = 5.245589116e-20
    Average rotational energy       = 3.46000615e-20
    Average vibrational energy      = 0
    Average electronic energy       = 0
    Total energy                    = 0.001779394505

Stage 1.0  ExecutionTime = 840.78 s  ClockTime = 841 s  Iteration 14600 (0.06 s)

Time = 0.147

    Collisions                      = 5873

    Number of DSMC particles        = 47581
    Number of stuck particles       = 0
    Number of free particles        = 47581
    Average linear kinetic energy   = 5.23081167e-20
    Average rotational energy       = 3.442628005e-20
    Average vibrational energy      = 0
    Average electronic energy       = 0
    Total energy                    = 0.00177282201

Stage 1.0  ExecutionTime = 846.54 s  ClockTime = 847 s  Iteration 14700 (0.06 s)

Time = 0.148

    Collisions                      = 5908

    Number of DSMC particles        = 47581
    Number of stuck particles       = 0
    Number of free particles        = 47581
    Average linear kinetic energy   = 5.210205736e-20
    Average rotational energy       = 3.465719237e-20
    Average vibrational energy      = 0
    Average electronic energy       = 0
    Total energy                    = 0.001773329997

Stage 1.0  ExecutionTime = 852.3 s  ClockTime = 853 s  Iteration 14800 (0.06 s)

Time = 0.149

    Collisions                      = 5841

    Number of DSMC particles        = 47581
    Number of stuck particles       = 0
    Number of free particles        = 47581
    Average linear kinetic energy   = 5.235831033e-20
    Average rotational energy       = 3.46542178e-20
    Average vibrational energy      = 0
    Average electronic energy       = 0
    Total energy                    = 0.001778506922

Stage 1.0  ExecutionTime = 858.09 s  ClockTime = 858 s  Iteration 14900 (0.06 s)

Time = 0.15

    Collisions                      = 5835

    Number of DSMC particles        = 47581
    Number of stuck particles       = 0
    Number of free particles        = 47581
    Average linear kinetic energy   = 5.223434299e-20
    Average rotational energy       = 3.433224543e-20
    Average vibrational energy      = 0
    Average electronic energy       = 0
    Total energy                    = 0.001769392064

Stage 1.0  ExecutionTime = 863.87 s  ClockTime = 864 s  Iteration 15000 (0.06 s)

Time = 0.151

    Collisions                      = 5870

    Number of DSMC particles        = 47581
    Number of stuck particles       = 0
    Number of free particles        = 47581
    Average linear kinetic energy   = 5.172859337e-20
    Average rotational energy       = 3.470920846e-20
    Average vibrational energy      = 0
    Average electronic energy       = 0
    Total energy                    = 0.001766759709

Stage 1.0  ExecutionTime = 869.63 s  ClockTime = 870 s  Iteration 15100 (0.06 s)

Time = 0.152

    Collisions                      = 5791

    Number of DSMC particles        = 47581
    Number of stuck particles       = 0
    Number of free particles        = 47581
[...]

Stage 1.0  ExecutionTime = 44648.64 s  ClockTime = 44679 s  Iteration 696300 (0.07 s)

Time = 6.964

    Collisions                      = 5868

    Number of DSMC particles        = 47581
    Number of stuck particles       = 0
    Number of free particles        = 47581
    Average linear kinetic energy   = 5.198012591e-20
    Average rotational energy       = 3.417487661e-20
    Average vibrational energy      = 0
    Average electronic energy       = 0
    Total energy                    = 0.001760979386

Stage 1.0  ExecutionTime = 44655.06 s  ClockTime = 44686 s  Iteration 696400 (0.07 s)

Time = 6.965

    Collisions                      = 6089

    Number of DSMC particles        = 47581
    Number of stuck particles       = 0
    Number of free particles        = 47581
    Average linear kinetic energy   = 5.222298275e-20
    Average rotational energy       = 3.438206577e-20
    Average vibrational energy      = 0
    Average electronic energy       = 0
    Total energy                    = 0.001770178176

Stage 1.0  ExecutionTime = 44661.66 s  ClockTime = 44692 s  Iteration 696500 (0.07000000001 s)

Time = 6.966

    Collisions                      = 5853

    Number of DSMC particles        = 47581
    Number of stuck particles       = 0
    Number of free particles        = 47581
    Average linear kinetic energy   = 5.207865407e-20
    Average rotational energy       = 3.448235456e-20
    Average vibrational energy      = 0
    Average electronic energy       = 0
    Total energy                    = 0.001769278015

Stage 1.0  ExecutionTime = 44668.08 s  ClockTime = 44699 s  Iteration 696600 (0.08 s)

Time = 6.967

    Collisions                      = 5884

    Number of DSMC particles        = 47581
    Number of stuck particles       = 0
    Number of free particles        = 47581
    Average linear kinetic energy   = 5.202922709e-20
    Average rotational energy       = 3.446437056e-20
    Average vibrational energy      = 0
    Average electronic energy       = 0
    Total energy                    = 0.001767900157

Stage 1.0  ExecutionTime = 44674.49 s  ClockTime = 44705 s  Iteration 696700 (0.09 s)

Time = 6.968

    Collisions                      = 5891

    Number of DSMC particles        = 47581
    Number of stuck particles       = 0
    Number of free particles        = 47581
    Average linear kinetic energy   = 5.213221013e-20
    Average rotational energy       = 3.413256574e-20
    Average vibrational energy      = 0
    Average electronic energy       = 0
    Total energy                    = 0.001763223117

Stage 1.0  ExecutionTime = 44680.92 s  ClockTime = 44712 s  Iteration 696800 (0.08 s)

Time = 6.969

    Collisions                      = 5867

    Number of DSMC particles        = 47581
    Number of stuck particles       = 0
    Number of free particles        = 47581
    Average linear kinetic energy   = 5.203849466e-20
    Average rotational energy       = 3.421376225e-20
    Average vibrational energy      = 0
    Average electronic energy       = 0
    Total energy                    = 0.001762967233

Stage 1.0  ExecutionTime = 44687.36 s  ClockTime = 44718 s  Iteration 696900 (0.08 s)

Time = 6.97

    Collisions                      = 5772

    Number of DSMC particles        = 47581
    Number of stuck particles       = 0
    Number of free particles        = 47581
    Average linear kinetic energy   = 5.230372194e-20
    Average rotational energy       = 3.440419259e-20
    Average vibrational energy      = 0
    Average electronic energy       = 0
    Total energy                    = 0.001772280723

Stage 1.0  ExecutionTime = 44693.76 s  ClockTime = 44725 s  Iteration 697000 (0.08 s)

Time = 6.971

    Collisions                      = 5903

    Number of DSMC particles        = 47581
    Number of stuck particles       = 0
    Number of free particles        = 47581
    Average linear kinetic energy   = 5.220245978e-20
    Average rotational energy       = 3.444641848e-20
    Average vibrational energy      = 0
    Average electronic energy       = 0
    Total energy                    = 0.001771074041

Stage 1.0  ExecutionTime = 44700.19 s  ClockTime = 44731 s  Iteration 697100 (0.08 s)

Time = 6.972

    Collisions                      = 5880

    Number of DSMC particles        = 47581
    Number of stuck particles       = 0
    Number of free particles        = 47581
    Average linear kinetic energy   = 5.208918227e-20
    Average rotational energy       = 3.442135777e-20
    Average vibrational energy      = 0
    Average electronic energy       = 0
    Total energy                    = 0.001768246454

Stage 1.0  ExecutionTime = 44706.59 s  ClockTime = 44737 s  Iteration 697200 (0.09 s)

Time = 6.973

    Collisions                      = 5953

    Number of DSMC particles        = 47581
    Number of stuck particles       = 0
    Number of free particles        = 47581
    Average linear kinetic energy   = 5.210720351e-20
    Average rotational energy       = 3.45322187e-20
    Average vibrational energy      = 0
    Average electronic energy       = 0
    Total energy                    = 0.001770880762

Stage 1.0  ExecutionTime = 44712.98 s  ClockTime = 44744 s  Iteration 697300 (0.09 s)

Time = 6.974

    Collisions                      = 5864

    Number of DSMC particles        = 47581
    Number of stuck particles       = 0
    Number of free particles        = 47581
    Average linear kinetic energy   = 5.210218272e-20
    Average rotational energy       = 3.477545463e-20
    Average vibrational energy      = 0
    Average electronic energy       = 0
    Total energy                    = 0.0017757498

Stage 1.0  ExecutionTime = 44719.35 s  ClockTime = 44750 s  Iteration 697400 (0.08 s)

Time = 6.975

    Collisions                      = 5972

    Number of DSMC particles        = 47581
    Number of stuck particles       = 0
    Number of free particles        = 47581
    Average linear kinetic energy   = 5.231725728e-20
    Average rotational energy       = 3.436681247e-20
    Average vibrational energy      = 0
    Average electronic energy       = 0
    Total energy                    = 0.001771793343

Stage 1.0  ExecutionTime = 44725.74 s  ClockTime = 44757 s  Iteration 697500 (0.07999999999 s)

Time = 6.976

    Collisions                      = 5835

    Number of DSMC particles        = 47581
    Number of stuck particles       = 0
    Number of free particles        = 47581
    Average linear kinetic energy   = 5.220517927e-20
    Average rotational energy       = 3.449476377e-20
    Average vibrational energy      = 0
    Average electronic energy       = 0
    Total energy                    = 0.001772117788

Stage 1.0  ExecutionTime = 44732.16 s  ClockTime = 44763 s  Iteration 697600 (0.09 s)

Time = 6.977

    Collisions                      = 5790

    Number of DSMC particles        = 47581
    Number of stuck particles       = 0
    Number of free particles        = 47581
    Average linear kinetic energy   = 5.243115183e-20
    Average rotational energy       = 3.403659202e-20
    Average vibrational energy      = 0
    Average electronic energy       = 0
    Total energy                    = 0.001767371714

Stage 1.0  ExecutionTime = 44738.79 s  ClockTime = 44770 s  Iteration 697700 (0.08 s)

Time = 6.978

    Collisions                      = 5926

    Number of DSMC particles        = 47581
    Number of stuck particles       = 0
    Number of free particles        = 47581
    Average linear kinetic energy   = 5.228171273e-20
    Average rotational energy       = 3.426789749e-20
    Average vibrational energy      = 0
    Average electronic energy       = 0
    Total energy                    = 0.001769045035

Stage 1.0  ExecutionTime = 44745.6 s  ClockTime = 44776 s  Iteration 697800 (0.08 s)

Time = 6.979

    Collisions                      = 5958

    Number of DSMC particles        = 47581
    Number of stuck particles       = 0
    Number of free particles        = 47581
    Average linear kinetic energy   = 5.248778782e-20
    Average rotational energy       = 3.421860423e-20
    Average vibrational energy      = 0
    Average electronic energy       = 0
    Total energy                    = 0.001772249603

Stage 1.0  ExecutionTime = 44752.12 s  ClockTime = 44783 s  Iteration 697900 (0.09 s)

Time = 6.98

    Collisions                      = 5850

    Number of DSMC particles        = 47581
    Number of stuck particles       = 0
    Number of free particles        = 47581
    Average linear kinetic energy   = 5.191862503e-20
    Average rotational energy       = 3.424059694e-20
    Average vibrational energy      = 0
    Average electronic energy       = 0
    Total energy                    = 0.00176106563

Stage 1.0  ExecutionTime = 44758.7 s  ClockTime = 44790 s  Iteration 698000 (0.09 s)

Time = 6.981

    Collisions                      = 5923

    Number of DSMC particles        = 47581
    Number of stuck particles       = 0
    Number of free particles        = 47581
    Average linear kinetic energy   = 5.180941032e-20
    Average rotational energy       = 3.467155107e-20
    Average vibrational energy      = 0
    Average electronic energy       = 0
    Total energy                    = 0.001767641876

Stage 1.0  ExecutionTime = 44765.38 s  ClockTime = 44796 s  Iteration 698100 (0.07 s)

Time = 6.982

    Collisions                      = 5941

    Number of DSMC particles        = 47581
    Number of stuck particles       = 0
    Number of free particles        = 47581
    Average linear kinetic energy   = 5.180538073e-20
    Average rotational energy       = 3.447503924e-20
    Average vibrational energy      = 0
    Average electronic energy       = 0
    Total energy                    = 0.001763542877

Stage 1.0  ExecutionTime = 44772.46 s  ClockTime = 44803 s  Iteration 698200 (0.07 s)

Time = 6.983

    Collisions                      = 5944

    Number of DSMC particles        = 47581
    Number of stuck particles       = 0
    Number of free particles        = 47581
    Average linear kinetic energy   = 5.195910659e-20
    Average rotational energy       = 3.431427373e-20
    Average vibrational energy      = 0
    Average electronic energy       = 0
    Total energy                    = 0.001763398989

Stage 1.0  ExecutionTime = 44779.04 s  ClockTime = 44810 s  Iteration 698300 (0.08 s)

Time = 6.984

    Collisions                      = 5830

    Number of DSMC particles        = 47581
    Number of stuck particles       = 0
    Number of free particles        = 47581
    Average linear kinetic energy   = 5.219101151e-20
    Average rotational energy       = 3.411322396e-20
    Average vibrational energy      = 0
    Average electronic energy       = 0
    Total energy                    = 0.001764029657

Stage 1.0  ExecutionTime = 44785.36 s  ClockTime = 44816 s  Iteration 698400 (0.08 s)

Time = 6.985

    Collisions                      = 5915

    Number of DSMC particles        = 47581
    Number of stuck particles       = 0
    Number of free particles        = 47581
    Average linear kinetic energy   = 5.202954718e-20
    Average rotational energy       = 3.431833475e-20
    Average vibrational energy      = 0
    Average electronic energy       = 0
    Total energy                    = 0.001764921777

Stage 1.0  ExecutionTime = 44791.71 s  ClockTime = 44823 s  Iteration 698500 (0.07 s)

Time = 6.986

    Collisions                      = 5937

    Number of DSMC particles        = 47581
    Number of stuck particles       = 0
    Number of free particles        = 47581
    Average linear kinetic energy   = 5.197040127e-20
    Average rotational energy       = 3.421823059e-20
    Average vibrational energy      = 0
    Average electronic energy       = 0
    Total energy                    = 0.001761666759

Stage 1.0  ExecutionTime = 44798.1 s  ClockTime = 44829 s  Iteration 698600 (0.08 s)

Time = 6.987

    Collisions                      = 5993

    Number of DSMC particles        = 47581
    Number of stuck particles       = 0
    Number of free particles        = 47581
    Average linear kinetic energy   = 5.214512099e-20
    Average rotational energy       = 3.426362301e-20
    Average vibrational energy      = 0
    Average electronic energy       = 0
    Total energy                    = 0.001766165777

Stage 1.0  ExecutionTime = 44804.68 s  ClockTime = 44836 s  Iteration 698700 (0.08 s)

Time = 6.988

    Collisions                      = 5913

    Number of DSMC particles        = 47581
    Number of stuck particles       = 0
    Number of free particles        = 47581
    Average linear kinetic energy   = 5.165935689e-20
    Average rotational energy       = 3.448196306e-20
    Average vibrational energy      = 0
    Average electronic energy       = 0
    Total energy                    = 0.001760699719

Stage 1.0  ExecutionTime = 44811.17 s  ClockTime = 44842 s  Iteration 698800 (0.08 s)

Time = 6.989

    Collisions                      = 5808

    Number of DSMC particles        = 47581
    Number of stuck particles       = 0
    Number of free particles        = 47581
    Average linear kinetic energy   = 5.216692515e-20
    Average rotational energy       = 3.435244101e-20
    Average vibrational energy      = 0
    Average electronic energy       = 0
    Total energy                    = 0.001768426857

Stage 1.0  ExecutionTime = 44817.62 s  ClockTime = 44848 s  Iteration 698900 (0.08 s)

Time = 6.99

    Collisions                      = 5869

    Number of DSMC particles        = 47581
    Number of stuck particles       = 0
    Number of free particles        = 47581
    Average linear kinetic energy   = 5.24815132e-20
    Average rotational energy       = 3.440354776e-20
    Average vibrational energy      = 0
    Average electronic energy       = 0
    Total energy                    = 0.001775901536

Stage 1.0  ExecutionTime = 44824.11 s  ClockTime = 44855 s  Iteration 699000 (0.08 s)

Time = 6.991

    Collisions                      = 6030

    Number of DSMC particles        = 47581
    Number of stuck particles       = 0
    Number of free particles        = 47581
    Average linear kinetic energy   = 5.263813465e-20
    Average rotational energy       = 3.438492962e-20
    Average vibrational energy      = 0
    Average electronic energy       = 0
    Total energy                    = 0.001778722278

Stage 1.0  ExecutionTime = 44830.54 s  ClockTime = 44861 s  Iteration 699100 (0.07 s)

Time = 6.992

    Collisions                      = 5927

    Number of DSMC particles        = 47581
    Number of stuck particles       = 0
    Number of free particles        = 47581
    Average linear kinetic energy   = 5.218754809e-20
    Average rotational energy       = 3.449567672e-20
    Average vibrational energy      = 0
    Average electronic energy       = 0
    Total energy                    = 0.001771776073

Stage 1.0  ExecutionTime = 44837.09 s  ClockTime = 44868 s  Iteration 699200 (0.07999999999 s)

Time = 6.993

    Collisions                      = 5844

    Number of DSMC particles        = 47581
    Number of stuck particles       = 0
    Number of free particles        = 47581
    Average linear kinetic energy   = 5.175964277e-20
    Average rotational energy       = 3.461498322e-20
    Average vibrational energy      = 0
    Average electronic energy       = 0
    Total energy                    = 0.001765468416

Stage 1.0  ExecutionTime = 44843.54 s  ClockTime = 44874 s  Iteration 699300 (0.08 s)

Time = 6.994

    Collisions                      = 5829

    Number of DSMC particles        = 47581
    Number of stuck particles       = 0
    Number of free particles        = 47581
    Average linear kinetic energy   = 5.203124746e-20
    Average rotational energy       = 3.45856771e-20
    Average vibrational energy      = 0
    Average electronic energy       = 0
    Total energy                    = 0.001770420918

Stage 1.0  ExecutionTime = 44850.03 s  ClockTime = 44881 s  Iteration 699400 (0.08 s)

Time = 6.995

    Collisions                      = 5792

    Number of DSMC particles        = 47581
    Number of stuck particles       = 0
    Number of free particles        = 47581
    Average linear kinetic energy   = 5.247770852e-20
    Average rotational energy       = 3.448785839e-20
    Average vibrational energy      = 0
    Average electronic energy       = 0
    Total energy                    = 0.001777547051

Stage 1.0  ExecutionTime = 44856.68 s  ClockTime = 44888 s  Iteration 699500 (0.09 s)

Time = 6.996

    Collisions                      = 5844

    Number of DSMC particles        = 47581
    Number of stuck particles       = 0
    Number of free particles        = 47581
    Average linear kinetic energy   = 5.226402249e-20
    Average rotational energy       = 3.454355812e-20
    Average vibrational energy      = 0
    Average electronic energy       = 0
    Total energy                    = 0.001774317864

Stage 1.0  ExecutionTime = 44863.49 s  ClockTime = 44894 s  Iteration 699600 (0.1 s)

Time = 6.997

    Collisions                      = 5917

    Number of DSMC particles        = 47581
    Number of stuck particles       = 0
    Number of free particles        = 47581
    Average linear kinetic energy   = 5.223666421e-20
    Average rotational energy       = 3.421206204e-20
    Average vibrational energy      = 0
    Average electronic energy       = 0
    Total energy                    = 0.001766983001

Stage 1.0  ExecutionTime = 44870.17 s  ClockTime = 44901 s  Iteration 699700 (0.08 s)

Time = 6.998

    Collisions                      = 5829

    Number of DSMC particles        = 47581
    Number of stuck particles       = 0
    Number of free particles        = 47581
    Average linear kinetic energy   = 5.200859779e-20
    Average rotational energy       = 3.403298924e-20
    Average vibrational energy      = 0
    Average electronic energy       = 0
    Total energy                    = 0.001758661212

Stage 1.0  ExecutionTime = 44876.69 s  ClockTime = 44908 s  Iteration 699800 (0.08 s)

Time = 6.999

    Collisions                      = 5749

    Number of DSMC particles        = 47581
    Number of stuck particles       = 0
    Number of free particles        = 47581
    Average linear kinetic energy   = 5.229491528e-20
    Average rotational energy       = 3.404559307e-20
    Average vibrational energy      = 0
    Average electronic energy       = 0
    Total energy                    = 0.001764771063

Stage 1.0  ExecutionTime = 44883.16 s  ClockTime = 44914 s  Iteration 699900 (0.08 s)

Time = 7

    Collisions                      = 5846

    Number of DSMC particles        = 47581
    Number of stuck particles       = 0
    Number of free particles        = 47581
    Average linear kinetic energy   = 5.209372932e-20
    Average rotational energy       = 3.429748753e-20
    Average vibrational energy      = 0
    Average electronic energy       = 0
    Total energy                    = 0.001765807528

Stage 1.0  ExecutionTime = 44891.49 s  ClockTime = 44922 s  Iteration 700000 (0.43 s)

    Maximum imbalance = 8.585359702%
End stage 1

Total Iterations = 700000
End main

Finalising parallel run
--------------------------------------------------------------------------
A system call failed during shared memory initialization that should
not have.  It is likely that your MPI job will now either abort or
experience performance degradation.

  Local host:  Galileo
  System call: unlink(2) /tmp/openmpi-sessions-1000@Galileo_0/21898/1/0/vader_segment.Galileo.0
  Error:       No such file or directory (errno 2)
--------------------------------------------------------------------------
[Galileo:02788] 1 more process has sent help message help-opal-shmem-mmap.txt / sys call fail
[Galileo:02788] Set MCA parameter "orte_base_help_aggregate" to 0 to see all help / error messages
