/*---------------------------------------------------------------------------*\
| =========                 |                                                 |
| \\      /  F ield         | OpenFOAM: The Open Source CFD Toolbox           |
|  \\    /   O peration     | Version:  v1706                                 |
|   \\  /    A nd           | Web:      www.OpenFOAM.com                      |
|    \\/     M anipulation  |                                                 |
\*---------------------------------------------------------------------------*/
Build  : v1706
Arch   : "LSB;label=32;scalar=64"
Exec   : dsmcFoam+
Date   : Jan 11 2019
Time   : 10:29:47
Host   : "Galileo"
PID    : 31984
Case   : /home/vincent/OpenFOAM/vincent-v1706/hyStrath/run/hyStrath/dsmcFoam+/gasSurfaceInteraction/absorbingStickingPatch
nProcs : 1
sigFpe : Enabling floating point exception trapping (FOAM_SIGFPE).
fileModificationChecking : Monitoring run-time modified files using timeStampMaster (fileModificationSkew 10)
allowSystemOperations : Allowing user-supplied system call operations

// * * * * * * * * * * * * * * * * * * * * * * * * * * * * * * * * * * * * * //
Create time

Create mesh for time = 0

Selecting dynamicFvMesh dynamicRefineFvMesh

Constructing dsmcCloud 
Selecting the coordinate system model:	dsmcCartesian

Selecting the time-step model:	dsmcConstantTimeStepModel

Constant time-step model:
- time-step [sec]	1e-09

Selecting the porous measurement model:	dsmcNoPorousMediumMeasurements


Creating dsmcControllers

Creating fields: 

Selecting field: dsmcVolFields

TimeData Statistics: 
 measurement option: write
 nSamples: 1, time interval: 1e-09
 nAverages: 1000, time interval: 1e-06
 total no. of sampling steps: 1000
 total no. of averaging Steps: 1


Creating the boundary models: 

Selecting dsmcPatchBoundaryModel dsmcSpecularWallPatch
Selecting dsmcPatchBoundaryModel dsmcAbsorbingStickingDiffuseWallPatch
Selecting BinaryCollisionModel VariableHardSphere

Creating dsmcReactions

WARNING: there are no reactions.

Constructing constant properties for
	Ar
pair addressing: 1(1(-1))
Selecting collisionPartnerSelectionModel noTimeCounter

Initialising the measurement fields

Initialising dsmcVolFields field

Starting time loop

Time = 1e-09

    Collisions                      = 1

    Number of DSMC particles        = 9948
    Number of stuck particles       = 127
    Number of free particles        = 9821
    Average linear kinetic energy   = 4.118483341e-20
    Average rotational energy       = 0
    Average vibrational energy      = 0
    Average electronic energy       = 0
    Total energy                    = 4.04476249e-14

Stage 1.0  ExecutionTime = 0.06 s  ClockTime = 0 s  Iteration 1 (0.06 s)

Time = 2e-09

    Collisions                      = 3

    Number of DSMC particles        = 9910
    Number of stuck particles       = 256
    Number of free particles        = 9654
    Average linear kinetic energy   = 4.095767519e-20
    Average rotational energy       = 0
    Average vibrational energy      = 0
    Average electronic energy       = 0
    Total energy                    = 3.954053963e-14

Stage 1.0  ExecutionTime = 0.06 s  ClockTime = 0 s  Iteration 2 (0.001 s)

Time = 3e-09

    Collisions                      = 2

    Number of DSMC particles        = 9874
    Number of stuck particles       = 371
    Number of free particles        = 9503
    Average linear kinetic energy   = 4.081531339e-20
    Average rotational energy       = 0
    Average vibrational energy      = 0
    Average electronic energy       = 0
    Total energy                    = 3.878679232e-14

Stage 1.0  ExecutionTime = 0.07 s  ClockTime = 0 s  Iteration 3 (0.01 s)

Time = 4e-09

    Collisions                      = 3

    Number of DSMC particles        = 9830
    Number of stuck particles       = 486
    Number of free particles        = 9344
    Average linear kinetic energy   = 4.040263779e-20
    Average rotational energy       = 0
    Average vibrational energy      = 0
    Average electronic energy       = 0
    Total energy                    = 3.775222475e-14

Stage 1.0  ExecutionTime = 0.07 s  ClockTime = 0 s  Iteration 4 (0.001 s)

Time = 5e-09

    Collisions                      = 1

    Number of DSMC particles        = 9796
    Number of stuck particles       = 606
    Number of free particles        = 9190
    Average linear kinetic energy   = 4.014521443e-20
    Average rotational energy       = 0
    Average vibrational energy      = 0
    Average electronic energy       = 0
    Total energy                    = 3.689345206e-14

Stage 1.0  ExecutionTime = 0.08 s  ClockTime = 0 s  Iteration 5 (0.01 s)

Time = 6e-09

    Collisions                      = 2

    Number of DSMC particles        = 9768
    Number of stuck particles       = 719
    Number of free particles        = 9049
    Average linear kinetic energy   = 3.990373584e-20
    Average rotational energy       = 0
    Average vibrational energy      = 0
    Average electronic energy       = 0
    Total energy                    = 3.610889056e-14

Stage 1.0  ExecutionTime = 0.08 s  ClockTime = 0 s  Iteration 6 (0.001 s)

Time = 7e-09

    Collisions                      = 2

    Number of DSMC particles        = 9723
    Number of stuck particles       = 826
    Number of free particles        = 8897
    Average linear kinetic energy   = 3.958752528e-20
    Average rotational energy       = 0
    Average vibrational energy      = 0
    Average electronic energy       = 0
    Total energy                    = 3.522102124e-14

Stage 1.0  ExecutionTime = 0.09 s  ClockTime = 0 s  Iteration 7 (0.01 s)

Time = 8e-09

    Collisions                      = 2

    Number of DSMC particles        = 9690
    Number of stuck particles       = 920
    Number of free particles        = 8770
    Average linear kinetic energy   = 3.938640403e-20
    Average rotational energy       = 0
    Average vibrational energy      = 0
    Average electronic energy       = 0
    Total energy                    = 3.454187633e-14

Stage 1.0  ExecutionTime = 0.09 s  ClockTime = 0 s  Iteration 8 (0.001 s)

Time = 9e-09

    Collisions                      = 2

    Number of DSMC particles        = 9656
    Number of stuck particles       = 1021
    Number of free particles        = 8635
    Average linear kinetic energy   = 3.907675747e-20
    Average rotational energy       = 0
    Average vibrational energy      = 0
    Average electronic energy       = 0
    Total energy                    = 3.374278008e-14

Stage 1.0  ExecutionTime = 0.1 s  ClockTime = 0 s  Iteration 9 (0.01 s)

Time = 1e-08

    Collisions                      = 1

    Number of DSMC particles        = 9615
    Number of stuck particles       = 1125
    Number of free particles        = 8490
    Average linear kinetic energy   = 3.888102869e-20
    Average rotational energy       = 0
    Average vibrational energy      = 0
    Average electronic energy       = 0
    Total energy                    = 3.300999336e-14

Stage 1.0  ExecutionTime = 0.1 s  ClockTime = 0 s  Iteration 10 (0.001 s)

Time = 1.1e-08

    Collisions                      = 3

    Number of DSMC particles        = 9564
    Number of stuck particles       = 1211
    Number of free particles        = 8353
    Average linear kinetic energy   = 3.871912182e-20
    Average rotational energy       = 0
    Average vibrational energy      = 0
    Average electronic energy       = 0
    Total energy                    = 3.234208246e-14

Stage 1.0  ExecutionTime = 0.11 s  ClockTime = 0 s  Iteration 11 (0.01 s)

Time = 1.2e-08

    Collisions                      = 2

    Number of DSMC particles        = 9530
    Number of stuck particles       = 1318
    Number of free particles        = 8212
    Average linear kinetic energy   = 3.843995826e-20
    Average rotational energy       = 0
    Average vibrational energy      = 0
    Average electronic energy       = 0
    Total energy                    = 3.156689373e-14

Stage 1.0  ExecutionTime = 0.11 s  ClockTime = 0 s  Iteration 12 (0.001 s)

Time = 1.3e-08

    Collisions                      = 3

    Number of DSMC particles        = 9487
    Number of stuck particles       = 1423
    Number of free particles        = 8064
    Average linear kinetic energy   = 3.823117031e-20
    Average rotational energy       = 0
    Average vibrational energy      = 0
    Average electronic energy       = 0
    Total energy                    = 3.082961574e-14

Stage 1.0  ExecutionTime = 0.12 s  ClockTime = 0 s  Iteration 13 (0.01 s)

Time = 1.4e-08

    Collisions                      = 2

    Number of DSMC particles        = 9461
    Number of stuck particles       = 1502
    Number of free particles        = 7959
    Average linear kinetic energy   = 3.802392393e-20
    Average rotational energy       = 0
    Average vibrational energy      = 0
    Average electronic energy       = 0
    Total energy                    = 3.026324106e-14

Stage 1.0  ExecutionTime = 0.12 s  ClockTime = 0 s  Iteration 14 (0.001 s)

Time = 1.5e-08

    Collisions                      = 2

    Number of DSMC particles        = 9422
    Number of stuck particles       = 1589
    Number of free particles        = 7833
    Average linear kinetic energy   = 3.772837488e-20
    Average rotational energy       = 0
    Average vibrational energy      = 0
    Average electronic energy       = 0
    Total energy                    = 2.955263604e-14

Stage 1.0  ExecutionTime = 0.13 s  ClockTime = 0 s  Iteration 15 (0.01 s)

Time = 1.6e-08

    Collisions                      = 0

    Number of DSMC particles        = 9388
    Number of stuck particles       = 1668
    Number of free particles        = 7720
    Average linear kinetic energy   = 3.764756961e-20
    Average rotational energy       = 0
    Average vibrational energy      = 0
    Average electronic energy       = 0
    Total energy                    = 2.906392374e-14

Stage 1.0  ExecutionTime = 0.13 s  ClockTime = 0 s  Iteration 16 (0.001 s)

Time = 1.7e-08

    Collisions                      = 2

    Number of DSMC particles        = 9359
    Number of stuck particles       = 1742
    Number of free particles        = 7617
    Average linear kinetic energy   = 3.762539104e-20
    Average rotational energy       = 0
    Average vibrational energy      = 0
    Average electronic energy       = 0
    Total energy                    = 2.865926036e-14

Stage 1.0  ExecutionTime = 0.14 s  ClockTime = 0 s  Iteration 17 (0.01 s)

Time = 1.8e-08

    Collisions                      = 2

    Number of DSMC particles        = 9332
    Number of stuck particles       = 1813
    Number of free particles        = 7519
    Average linear kinetic energy   = 3.764536145e-20
    Average rotational energy       = 0
    Average vibrational energy      = 0
    Average electronic energy       = 0
    Total energy                    = 2.830554727e-14

Stage 1.0  ExecutionTime = 0.14 s  ClockTime = 0 s  Iteration 18 (0.001 s)

Time = 1.9e-08

    Collisions                      = 1

    Number of DSMC particles        = 9296
    Number of stuck particles       = 1896
    Number of free particles        = 7400
    Average linear kinetic energy   = 3.764269487e-20
    Average rotational energy       = 0
    Average vibrational energy      = 0
    Average electronic energy       = 0
    Total energy                    = 2.78555942e-14

Stage 1.0  ExecutionTime = 0.15 s  ClockTime = 0 s  Iteration 19 (0.01 s)

Time = 2e-08

    Collisions                      = 1

    Number of DSMC particles        = 9253
    Number of stuck particles       = 1966
    Number of free particles        = 7287
    Average linear kinetic energy   = 3.75408354e-20
    Average rotational energy       = 0
    Average vibrational energy      = 0
    Average electronic energy       = 0
    Total energy                    = 2.735600675e-14

Stage 1.0  ExecutionTime = 0.15 s  ClockTime = 0 s  Iteration 20 (0.001 s)

Time = 2.1e-08

    Collisions                      = 2

    Number of DSMC particles        = 9226
    Number of stuck particles       = 2000
    Number of free particles        = 7226
    Average linear kinetic energy   = 3.765114736e-20
    Average rotational energy       = 0
    Average vibrational energy      = 0
    Average electronic energy       = 0
    Total energy                    = 2.720671908e-14

Stage 1.0  ExecutionTime = 0.15 s  ClockTime = 0 s  Iteration 21 (0.001 s)

Time = 2.2e-08

    Collisions                      = 1

    Number of DSMC particles        = 9199
    Number of stuck particles       = 1999
    Number of free particles        = 7200
    Average linear kinetic energy   = 3.75663848e-20
    Average rotational energy       = 0
    Average vibrational energy      = 0
    Average electronic energy       = 0
    Total energy                    = 2.704779705e-14

Stage 1.0  ExecutionTime = 0.16 s  ClockTime = 0 s  Iteration 22 (0.01 s)

Time = 2.3e-08

    Collisions                      = 2

    Number of DSMC particles        = 9167
    Number of stuck particles       = 1999
    Number of free particles        = 7168
    Average linear kinetic energy   = 3.76738891e-20
    Average rotational energy       = 0
    Average vibrational energy      = 0
    Average electronic energy       = 0
    Total energy                    = 2.700464371e-14

Stage 1.0  ExecutionTime = 0.16 s  ClockTime = 0 s  Iteration 23 (0.001 s)

Time = 2.4e-08

    Collisions                      = 2

    Number of DSMC particles        = 9131
    Number of stuck particles       = 1999
    Number of free particles        = 7132
    Average linear kinetic energy   = 3.794937631e-20
    Average rotational energy       = 0
    Average vibrational energy      = 0
    Average electronic energy       = 0
    Total energy                    = 2.706549518e-14

Stage 1.0  ExecutionTime = 0.17 s  ClockTime = 0 s  Iteration 24 (0.01 s)

Time = 2.5e-08

    Collisions                      = 2

    Number of DSMC particles        = 9107
    Number of stuck particles       = 1994
    Number of free particles        = 7113
    Average linear kinetic energy   = 3.81614619e-20
    Average rotational energy       = 0
    Average vibrational energy      = 0
    Average electronic energy       = 0
    Total energy                    = 2.714424785e-14

Stage 1.0  ExecutionTime = 0.17 s  ClockTime = 0 s  Iteration 25 (0.001 s)

Time = 2.6e-08

    Collisions                      = 2

    Number of DSMC particles        = 9076
    Number of stuck particles       = 1999
    Number of free particles        = 7077
    Average linear kinetic energy   = 3.827806811e-20
    Average rotational energy       = 0
    Average vibrational energy      = 0
    Average electronic energy       = 0
    Total energy                    = 2.70893888e-14

Stage 1.0  ExecutionTime = 0.18 s  ClockTime = 0 s  Iteration 26 (0.01 s)

Time = 2.7e-08

    Collisions                      = 0

    Number of DSMC particles        = 9049
    Number of stuck particles       = 2000
    Number of free particles        = 7049
    Average linear kinetic energy   = 3.838917106e-20
    Average rotational energy       = 0
    Average vibrational energy      = 0
    Average electronic energy       = 0
    Total energy                    = 2.706052668e-14

Stage 1.0  ExecutionTime = 0.18 s  ClockTime = 0 s  Iteration 27 (0.001 s)

Time = 2.8e-08

    Collisions                      = 2

    Number of DSMC particles        = 9018
    Number of stuck particles       = 1999
    Number of free particles        = 7019
    Average linear kinetic energy   = 3.852196103e-20
    Average rotational energy       = 0
    Average vibrational energy      = 0
    Average electronic energy       = 0
    Total energy                    = 2.703856445e-14

Stage 1.0  ExecutionTime = 0.18 s  ClockTime = 0 s  Iteration 28 (0.001 s)

Time = 2.9e-08

    Collisions                      = 3

    Number of DSMC particles        = 8989
    Number of stuck particles       = 2000
    Number of free particles        = 6989
    Average linear kinetic energy   = 3.883024309e-20
    Average rotational energy       = 0
    Average vibrational energy      = 0
    Average electronic energy       = 0
    Total energy                    = 2.71384569e-14

Stage 1.0  ExecutionTime = 0.19 s  ClockTime = 0 s  Iteration 29 (0.01 s)

Time = 3e-08

    Collisions                      = 2

    Number of DSMC particles        = 8961
    Number of stuck particles       = 2000
    Number of free particles        = 6961
    Average linear kinetic energy   = 3.887655687e-20
    Average rotational energy       = 0
    Average vibrational energy      = 0
    Average electronic energy       = 0
    Total energy                    = 2.706197124e-14

Stage 1.0  ExecutionTime = 0.19 s  ClockTime = 0 s  Iteration 30 (0.001 s)

Time = 3.1e-08

    Collisions                      = 2

    Number of DSMC particles        = 8948
    Number of stuck particles       = 2000
    Number of free particles        = 6948
    Average linear kinetic energy   = 3.891989011e-20
    Average rotational energy       = 0
    Average vibrational energy      = 0
    Average electronic energy       = 0
    Total energy                    = 2.704153965e-14

Stage 1.0  ExecutionTime = 0.2 s  ClockTime = 0 s  Iteration 31 (0.01 s)

Time = 3.2e-08

    Collisions                      = 1

    Number of DSMC particles        = 8920
    Number of stuck particles       = 1999
    Number of free particles        = 6921
    Average linear kinetic energy   = 3.888040798e-20
    Average rotational energy       = 0
    Average vibrational energy      = 0
    Average electronic energy       = 0
    Total energy                    = 2.690913036e-14

Stage 1.0  ExecutionTime = 0.2 s  ClockTime = 0 s  Iteration 32 (0.001 s)

Time = 3.3e-08

    Collisions                      = 2

    Number of DSMC particles        = 8895
    Number of stuck particles       = 2000
    Number of free particles        = 6895
    Average linear kinetic energy   = 3.89835587e-20
    Average rotational energy       = 0
    Average vibrational energy      = 0
    Average electronic energy       = 0
    Total energy                    = 2.687916373e-14

Stage 1.0  ExecutionTime = 0.2 s  ClockTime = 0 s  Iteration 33 (0.001 s)

Time = 3.4e-08

    Collisions                      = 1

    Number of DSMC particles        = 8878
    Number of stuck particles       = 2000
    Number of free particles        = 6878
    Average linear kinetic energy   = 3.910104738e-20
    Average rotational energy       = 0
    Average vibrational energy      = 0
    Average electronic energy       = 0
    Total energy                    = 2.689370039e-14

Stage 1.0  ExecutionTime = 0.21 s  ClockTime = 0 s  Iteration 34 (0.01 s)

Time = 3.5e-08

    Collisions                      = 2

    Number of DSMC particles        = 8850
    Number of stuck particles       = 1999
    Number of free particles        = 6851
    Average linear kinetic energy   = 3.929216676e-20
    Average rotational energy       = 0
    Average vibrational energy      = 0
    Average electronic energy       = 0
    Total energy                    = 2.691906345e-14

Stage 1.0  ExecutionTime = 0.21 s  ClockTime = 0 s  Iteration 35 (0.001 s)

Time = 3.6e-08

    Collisions                      = 1

    Number of DSMC particles        = 8824
    Number of stuck particles       = 1999
    Number of free particles        = 6825
    Average linear kinetic energy   = 3.928494294e-20
    Average rotational energy       = 0
    Average vibrational energy      = 0
    Average electronic energy       = 0
    Total energy                    = 2.681197356e-14

Stage 1.0  ExecutionTime = 0.22 s  ClockTime = 0 s  Iteration 36 (0.01 s)

Time = 3.7e-08

    Collisions                      = 0

    Number of DSMC particles        = 8800
    Number of stuck particles       = 1996
    Number of free particles        = 6804
    Average linear kinetic energy   = 3.944056705e-20
    Average rotational energy       = 0
    Average vibrational energy      = 0
    Average electronic energy       = 0
    Total energy                    = 2.683536182e-14

Stage 1.0  ExecutionTime = 0.22 s  ClockTime = 0 s  Iteration 37 (0.001 s)

Time = 3.8e-08

    Collisions                      = 2

    Number of DSMC particles        = 8778
    Number of stuck particles       = 1998
    Number of free particles        = 6780
    Average linear kinetic energy   = 3.945482e-20
    Average rotational energy       = 0
    Average vibrational energy      = 0
    Average electronic energy       = 0
    Total energy                    = 2.675036796e-14

Stage 1.0  ExecutionTime = 0.22 s  ClockTime = 0 s  Iteration 38 (0.001 s)

Time = 3.9e-08

    Collisions                      = 1

    Number of DSMC particles        = 8754
    Number of stuck particles       = 2000
    Number of free particles        = 6754
    Average linear kinetic energy   = 3.93490047e-20
    Average rotational energy       = 0
    Average vibrational energy      = 0
    Average electronic energy       = 0
    Total energy                    = 2.657631777e-14

Stage 1.0  ExecutionTime = 0.23 s  ClockTime = 0 s  Iteration 39 (0.01 s)

Time = 4e-08

    Collisions                      = 1

    Number of DSMC particles        = 8731
    Number of stuck particles       = 1997
    Number of free particles        = 6734
    Average linear kinetic energy   = 3.940667231e-20
    Average rotational energy       = 0
    Average vibrational energy      = 0
    Average electronic energy       = 0
    Total energy                    = 2.653645313e-14

Stage 1.0  ExecutionTime = 0.23 s  ClockTime = 0 s  Iteration 40 (0.001 s)

Time = 4.1e-08

    Collisions                      = 1

    Number of DSMC particles        = 8705
    Number of stuck particles       = 2000
    Number of free particles        = 6705
    Average linear kinetic energy   = 3.94391283e-20
    Average rotational energy       = 0
    Average vibrational energy      = 0
    Average electronic energy       = 0
    Total energy                    = 2.644393553e-14

Stage 1.0  ExecutionTime = 0.24 s  ClockTime = 0 s  Iteration 41 (0.01 s)

Time = 4.2e-08

    Collisions                      = 2

    Number of DSMC particles        = 8678
    Number of stuck particles       = 1998
    Number of free particles        = 6680
    Average linear kinetic energy   = 3.935953789e-20
    Average rotational energy       = 0
    Average vibrational energy      = 0
    Average electronic energy       = 0
    Total energy                    = 2.629217131e-14

Stage 1.0  ExecutionTime = 0.24 s  ClockTime = 0 s  Iteration 42 (0.001 s)

Time = 4.3e-08

    Collisions                      = 2

    Number of DSMC particles        = 8657
    Number of stuck particles       = 2000
    Number of free particles        = 6657
    Average linear kinetic energy   = 3.934729165e-20
    Average rotational energy       = 0
    Average vibrational energy      = 0
    Average electronic energy       = 0
    Total energy                    = 2.619349205e-14

Stage 1.0  ExecutionTime = 0.24 s  ClockTime = 0 s  Iteration 43 (0.001 s)

Time = 4.4e-08

    Collisions                      = 3

    Number of DSMC particles        = 8631
    Number of stuck particles       = 2000
    Number of free particles        = 6631
    Average linear kinetic energy   = 3.935242486e-20
    Average rotational energy       = 0
    Average vibrational energy      = 0
    Average electronic energy       = 0
    Total energy                    = 2.609459293e-14

Stage 1.0  ExecutionTime = 0.25 s  ClockTime = 0 s  Iteration 44 (0.01 s)

Time = 4.5e-08

    Collisions                      = 1

    Number of DSMC particles        = 8610
    Number of stuck particles       = 2000
    Number of free particles        = 6610
    Average linear kinetic energy   = 3.937462671e-20
    Average rotational energy       = 0
    Average vibrational energy      = 0
    Average electronic energy       = 0
    Total energy                    = 2.602662826e-14

Stage 1.0  ExecutionTime = 0.25 s  ClockTime = 0 s  Iteration 45 (0.001 s)

Time = 4.6e-08

    Collisions                      = 0

    Number of DSMC particles        = 8585
    Number of stuck particles       = 2000
    Number of free particles        = 6585
    Average linear kinetic energy   = 3.934490665e-20
    Average rotational energy       = 0
    Average vibrational energy      = 0
    Average electronic energy       = 0
    Total energy                    = 2.590862103e-14

Stage 1.0  ExecutionTime = 0.26 s  ClockTime = 0 s  Iteration 46 (0.01 s)

Time = 4.7e-08

    Collisions                      = 2

    Number of DSMC particles        = 8564
    Number of stuck particles       = 2000
    Number of free particles        = 6564
    Average linear kinetic energy   = 3.939129838e-20
    Average rotational energy       = 0
    Average vibrational energy      = 0
    Average electronic energy       = 0
    Total energy                    = 2.585644826e-14

Stage 1.0  ExecutionTime = 0.26 s  ClockTime = 0 s  Iteration 47 (0.001 s)

Time = 4.8e-08

    Collisions                      = 1

    Number of DSMC particles        = 8537
    Number of stuck particles       = 1999
    Number of free particles        = 6538
    Average linear kinetic energy   = 3.914318559e-20
    Average rotational energy       = 0
    Average vibrational energy      = 0
    Average electronic energy       = 0
    Total energy                    = 2.559181474e-14

Stage 1.0  ExecutionTime = 0.26 s  ClockTime = 0 s  Iteration 48 (0.001 s)

Time = 4.9e-08

    Collisions                      = 1

    Number of DSMC particles        = 8513
    Number of stuck particles       = 1999
    Number of free particles        = 6514
    Average linear kinetic energy   = 3.900313811e-20
    Average rotational energy       = 0
    Average vibrational energy      = 0
    Average electronic energy       = 0
    Total energy                    = 2.540664416e-14

Stage 1.0  ExecutionTime = 0.27 s  ClockTime = 0 s  Iteration 49 (0.01 s)

Time = 5e-08

    Collisions                      = 1

    Number of DSMC particles        = 8497
    Number of stuck particles       = 2000
    Number of free particles        = 6497
    Average linear kinetic energy   = 3.893877714e-20
    Average rotational energy       = 0
    Average vibrational energy      = 0
    Average electronic energy       = 0
    Total energy                    = 2.529852351e-14

Stage 1.0  ExecutionTime = 0.27 s  ClockTime = 0 s  Iteration 50 (0.001 s)

Time = 5.1e-08

    Collisions                      = 0

    Number of DSMC particles        = 8471
    Number of stuck particles       = 1999
    Number of free particles        = 6472
    Average linear kinetic energy   = 3.884567623e-20
    Average rotational energy       = 0
    Average vibrational energy      = 0
    Average electronic energy       = 0
    Total energy                    = 2.514092165e-14

Stage 1.0  ExecutionTime = 0.28 s  ClockTime = 0 s  Iteration 51 (0.01 s)

Time = 5.2e-08

    Collisions                      = 1

    Number of DSMC particles        = 8437
    Number of stuck particles       = 1999
    Number of free particles        = 6438
    Average linear kinetic energy   = 3.876470702e-20
    Average rotational energy       = 0
    Average vibrational energy      = 0
    Average electronic energy       = 0
    Total energy                    = 2.495671838e-14

Stage 1.0  ExecutionTime = 0.28 s  ClockTime = 0 s  Iteration 52 (0.001 s)

Time = 5.3e-08

    Collisions                      = 1

    Number of DSMC particles        = 8413
    Number of stuck particles       = 2000
    Number of free particles        = 6413
    Average linear kinetic energy   = 3.882330382e-20
    Average rotational energy       = 0
    Average vibrational energy      = 0
    Average electronic energy       = 0
    Total energy                    = 2.489738474e-14

Stage 1.0  ExecutionTime = 0.28 s  ClockTime = 0 s  Iteration 53 (0.001 s)

Time = 5.4e-08

    Collisions                      = 1

    Number of DSMC particles        = 8397
    Number of stuck particles       = 1999
    Number of free particles        = 6398
    Average linear kinetic energy   = 3.88214816e-20
    Average rotational energy       = 0
    Average vibrational energy      = 0
    Average electronic energy       = 0
    Total energy                    = 2.483798393e-14

Stage 1.0  ExecutionTime = 0.29 s  ClockTime = 0 s  Iteration 54 (0.01 s)

Time = 5.5e-08

    Collisions                      = 1

    Number of DSMC particles        = 8375
    Number of stuck particles       = 2000
    Number of free particles        = 6375
    Average linear kinetic energy   = 3.869143723e-20
    Average rotational energy       = 0
    Average vibrational energy      = 0
    Average electronic energy       = 0
    Total energy                    = 2.466579123e-14

Stage 1.0  ExecutionTime = 0.29 s  ClockTime = 0 s  Iteration 55 (0.001 s)

Time = 5.6e-08

    Collisions                      = 1

    Number of DSMC particles        = 8356
    Number of stuck particles       = 1995
    Number of free particles        = 6361
    Average linear kinetic energy   = 3.876950496e-20
    Average rotational energy       = 0
    Average vibrational energy      = 0
    Average electronic energy       = 0
    Total energy                    = 2.46612821e-14

Stage 1.0  ExecutionTime = 0.29 s  ClockTime = 0 s  Iteration 56 (0.001 s)

Time = 5.7e-08

    Collisions                      = 2

    Number of DSMC particles        = 8336
    Number of stuck particles       = 1999
    Number of free particles        = 6337
    Average linear kinetic energy   = 3.862354167e-20
    Average rotational energy       = 0
    Average vibrational energy      = 0
    Average electronic energy       = 0
    Total energy                    = 2.447573835e-14

Stage 1.0  ExecutionTime = 0.3 s  ClockTime = 0 s  Iteration 57 (0.01 s)

Time = 5.8e-08

    Collisions                      = 2

    Number of DSMC particles        = 8317
    Number of stuck particles       = 2000
    Number of free particles        = 6317
    Average linear kinetic energy   = 3.875292452e-20
    Average rotational energy       = 0
    Average vibrational energy      = 0
    Average electronic energy       = 0
    Total energy                    = 2.448022242e-14

Stage 1.0  ExecutionTime = 0.3 s  ClockTime = 0 s  Iteration 58 (0.001 s)

Time = 5.9e-08

    Collisions                      = 1

    Number of DSMC particles        = 8293
    Number of stuck particles       = 2000
    Number of free particles        = 6293
    Average linear kinetic energy   = 3.901425442e-20
    Average rotational energy       = 0
    Average vibrational energy      = 0
    Average electronic energy       = 0
    Total energy                    = 2.455167031e-14

Stage 1.0  ExecutionTime = 0.31 s  ClockTime = 0 s  Iteration 59 (0.01 s)

Time = 6e-08

    Collisions                      = 0

    Number of DSMC particles        = 8265
    Number of stuck particles       = 1998
    Number of free particles        = 6267
    Average linear kinetic energy   = 3.884689948e-20
    Average rotational energy       = 0
    Average vibrational energy      = 0
    Average electronic energy       = 0
    Total energy                    = 2.434535191e-14

Stage 1.0  ExecutionTime = 0.31 s  ClockTime = 0 s  Iteration 60 (0.001 s)

Time = 6.1e-08

    Collisions                      = 1

    Number of DSMC particles        = 8245
    Number of stuck particles       = 2000
    Number of free particles        = 6245
    Average linear kinetic energy   = 3.883383742e-20
    Average rotational energy       = 0
    Average vibrational energy      = 0
    Average electronic energy       = 0
    Total energy                    = 2.425173147e-14

Stage 1.0  ExecutionTime = 0.31 s  ClockTime = 0 s  Iteration 61 (0.001 s)

Time = 6.2e-08

    Collisions                      = 2

    Number of DSMC particles        = 8225
    Number of stuck particles       = 2000
    Number of free particles        = 6225
    Average linear kinetic energy   = 3.875261912e-20
    Average rotational energy       = 0
    Average vibrational energy      = 0
    Average electronic energy       = 0
    Total energy                    = 2.41235054e-14

Stage 1.0  ExecutionTime = 0.32 s  ClockTime = 0 s  Iteration 62 (0.01 s)

Time = 6.3e-08

    Collisions                      = 1

    Number of DSMC particles        = 8203
    Number of stuck particles       = 1998
    Number of free particles        = 6205
    Average linear kinetic energy   = 3.898710422e-20
    Average rotational energy       = 0
    Average vibrational energy      = 0
    Average electronic energy       = 0
    Total energy                    = 2.419149817e-14

Stage 1.0  ExecutionTime = 0.32 s  ClockTime = 0 s  Iteration 63 (0.001 s)

Time = 6.4e-08

    Collisions                      = 0

    Number of DSMC particles        = 8179
    Number of stuck particles       = 2000
    Number of free particles        = 6179
    Average linear kinetic energy   = 3.905872411e-20
    Average rotational energy       = 0
    Average vibrational energy      = 0
    Average electronic energy       = 0
    Total energy                    = 2.413438563e-14

Stage 1.0  ExecutionTime = 0.32 s  ClockTime = 0 s  Iteration 64 (0.001 s)

Time = 6.5e-08

    Collisions                      = 1

    Number of DSMC particles        = 8151
    Number of stuck particles       = 2000
    Number of free particles        = 6151
    Average linear kinetic energy   = 3.905954868e-20
    Average rotational energy       = 0
    Average vibrational energy      = 0
    Average electronic energy       = 0
    Total energy                    = 2.402552839e-14

Stage 1.0  ExecutionTime = 0.33 s  ClockTime = 0 s  Iteration 65 (0.01 s)

Time = 6.6e-08

    Collisions                      = 0

    Number of DSMC particles        = 8129
    Number of stuck particles       = 2000
    Number of free particles        = 6129
    Average linear kinetic energy   = 3.914751683e-20
    Average rotational energy       = 0
    Average vibrational energy      = 0
    Average electronic energy       = 0
    Total energy                    = 2.399351306e-14

Stage 1.0  ExecutionTime = 0.33 s  ClockTime = 0 s  Iteration 66 (0.001 s)

Time = 6.7e-08

    Collisions                      = 3

    Number of DSMC particles        = 8102
    Number of stuck particles       = 1998
    Number of free particles        = 6104
    Average linear kinetic energy   = 3.926018788e-20
    Average rotational energy       = 0
    Average vibrational energy      = 0
    Average electronic energy       = 0
    Total energy                    = 2.396441868e-14

Stage 1.0  ExecutionTime = 0.34 s  ClockTime = 0 s  Iteration 67 (0.01 s)

Time = 6.8e-08

    Collisions                      = 1

    Number of DSMC particles        = 8082
    Number of stuck particles       = 1993
    Number of free particles        = 6089
    Average linear kinetic energy   = 3.917840991e-20
    Average rotational energy       = 0
    Average vibrational energy      = 0
    Average electronic energy       = 0
    Total energy                    = 2.38557338e-14

Stage 1.0  ExecutionTime = 0.34 s  ClockTime = 0 s  Iteration 68 (0.001 s)

Time = 6.9e-08

    Collisions                      = 1

    Number of DSMC particles        = 8067
    Number of stuck particles       = 1996
    Number of free particles        = 6071
    Average linear kinetic energy   = 3.917588597e-20
    Average rotational energy       = 0
    Average vibrational energy      = 0
    Average electronic energy       = 0
    Total energy                    = 2.378368037e-14

Stage 1.0  ExecutionTime = 0.34 s  ClockTime = 0 s  Iteration 69 (0.001 s)

Time = 7e-08

    Collisions                      = 1

    Number of DSMC particles        = 8044
    Number of stuck particles       = 1998
    Number of free particles        = 6046
    Average linear kinetic energy   = 3.900114581e-20
    Average rotational energy       = 0
    Average vibrational energy      = 0
    Average electronic energy       = 0
    Total energy                    = 2.358009276e-14

Stage 1.0  ExecutionTime = 0.35 s  ClockTime = 0 s  Iteration 70 (0.01 s)

Time = 7.1e-08

    Collisions                      = 2

    Number of DSMC particles        = 8017
    Number of stuck particles       = 1999
    Number of free particles        = 6018
    Average linear kinetic energy   = 3.913167729e-20
    Average rotational energy       = 0
    Average vibrational energy      = 0
    Average electronic energy       = 0
    Total energy                    = 2.354944339e-14

Stage 1.0  ExecutionTime = 0.35 s  ClockTime = 0 s  Iteration 71 (0.001 s)

Time = 7.2e-08

    Collisions                      = 1

    Number of DSMC particles        = 7992
    Number of stuck particles       = 1999
    Number of free particles        = 5993
    Average linear kinetic energy   = 3.907006124e-20
    Average rotational energy       = 0
    Average vibrational energy      = 0
    Average electronic energy       = 0
    Total energy                    = 2.34146877e-14

Stage 1.0  ExecutionTime = 0.35 s  ClockTime = 0 s  Iteration 72 (0.001 s)

Time = 7.3e-08

    Collisions                      = 1

    Number of DSMC particles        = 7973
    Number of stuck particles       = 1998
    Number of free particles        = 5975
    Average linear kinetic energy   = 3.911638389e-20
    Average rotational energy       = 0
    Average vibrational energy      = 0
    Average electronic energy       = 0
    Total energy                    = 2.337203938e-14

Stage 1.0  ExecutionTime = 0.36 s  ClockTime = 0 s  Iteration 73 (0.01 s)

Time = 7.4e-08

    Collisions                      = 0

    Number of DSMC particles        = 7954
    Number of stuck particles       = 2000
    Number of free particles        = 5954
    Average linear kinetic energy   = 3.915645618e-20
    Average rotational energy       = 0
    Average vibrational energy      = 0
    Average electronic energy       = 0
    Total energy                    = 2.331375401e-14

Stage 1.0  ExecutionTime = 0.36 s  ClockTime = 0 s  Iteration 74 (0.001 s)

Time = 7.5e-08

    Collisions                      = 1

    Number of DSMC particles        = 7931
    Number of stuck particles       = 2000
    Number of free particles        = 5931
    Average linear kinetic energy   = 3.903191409e-20
    Average rotational energy       = 0
    Average vibrational energy      = 0
    Average electronic energy       = 0
    Total energy                    = 2.314982825e-14

Stage 1.0  ExecutionTime = 0.36 s  ClockTime = 0 s  Iteration 75 (0.001 s)

Time = 7.6e-08

    Collisions                      = 1

    Number of DSMC particles        = 7907
    Number of stuck particles       = 2000
    Number of free particles        = 5907
    Average linear kinetic energy   = 3.903843047e-20
    Average rotational energy       = 0
    Average vibrational energy      = 0
    Average electronic energy       = 0
    Total energy                    = 2.306000088e-14

Stage 1.0  ExecutionTime = 0.37 s  ClockTime = 0 s  Iteration 76 (0.01 s)

Time = 7.7e-08

    Collisions                      = 2

    Number of DSMC particles        = 7898
    Number of stuck particles       = 2000
    Number of free particles        = 5898
    Average linear kinetic energy   = 3.910242294e-20
    Average rotational energy       = 0
    Average vibrational energy      = 0
    Average electronic energy       = 0
    Total energy                    = 2.306260905e-14

Stage 1.0  ExecutionTime = 0.37 s  ClockTime = 0 s  Iteration 77 (0.001 s)

Time = 7.8e-08

    Collisions                      = 2

    Number of DSMC particles        = 7880
    Number of stuck particles       = 2000
    Number of free particles        = 5880
    Average linear kinetic energy   = 3.919449226e-20
    Average rotational energy       = 0
    Average vibrational energy      = 0
    Average electronic energy       = 0
    Total energy                    = 2.304636145e-14

Stage 1.0  ExecutionTime = 0.38 s  ClockTime = 0 s  Iteration 78 (0.01 s)

Time = 7.9e-08

    Collisions                      = 1

    Number of DSMC particles        = 7855
    Number of stuck particles       = 1998
    Number of free particles        = 5857
    Average linear kinetic energy   = 3.923547467e-20
    Average rotational energy       = 0
    Average vibrational energy      = 0
    Average electronic energy       = 0
    Total energy                    = 2.298021752e-14

Stage 1.0  ExecutionTime = 0.38 s  ClockTime = 0 s  Iteration 79 (0.001 s)

Time = 8e-08

    Collisions                      = 2

    Number of DSMC particles        = 7837
    Number of stuck particles       = 1996
    Number of free particles        = 5841
    Average linear kinetic energy   = 3.923411959e-20
    Average rotational energy       = 0
    Average vibrational energy      = 0
    Average electronic energy       = 0
    Total energy                    = 2.291664926e-14

Stage 1.0  ExecutionTime = 0.38 s  ClockTime = 0 s  Iteration 80 (0.001 s)

Time = 8.1e-08

    Collisions                      = 2

    Number of DSMC particles        = 7823
    Number of stuck particles       = 1999
    Number of free particles        = 5824
    Average linear kinetic energy   = 3.908963487e-20
    Average rotational energy       = 0
    Average vibrational energy      = 0
    Average electronic energy       = 0
    Total energy                    = 2.276580335e-14

Stage 1.0  ExecutionTime = 0.39 s  ClockTime = 0 s  Iteration 81 (0.01 s)

Time = 8.2e-08

    Collisions                      = 2

    Number of DSMC particles        = 7808
    Number of stuck particles       = 2000
    Number of free particles        = 5808
    Average linear kinetic energy   = 3.923614929e-20
    Average rotational energy       = 0
    Average vibrational energy      = 0
    Average electronic energy       = 0
    Total energy                    = 2.278835551e-14

Stage 1.0  ExecutionTime = 0.39 s  ClockTime = 0 s  Iteration 82 (0.001 s)

Time = 8.3e-08

    Collisions                      = 2

    Number of DSMC particles        = 7782
    Number of stuck particles       = 1997
    Number of free particles        = 5785
    Average linear kinetic energy   = 3.921018994e-20
    Average rotational energy       = 0
    Average vibrational energy      = 0
    Average electronic energy       = 0
    Total energy                    = 2.268309488e-14

Stage 1.0  ExecutionTime = 0.39 s  ClockTime = 0 s  Iteration 83 (0.001 s)

Time = 8.4e-08

    Collisions                      = 1

    Number of DSMC particles        = 7765
    Number of stuck particles       = 2000
    Number of free particles        = 5765
    Average linear kinetic energy   = 3.926927787e-20
    Average rotational energy       = 0
    Average vibrational energy      = 0
    Average electronic energy       = 0
    Total energy                    = 2.263873869e-14

Stage 1.0  ExecutionTime = 0.4 s  ClockTime = 0 s  Iteration 84 (0.01 s)

Time = 8.5e-08

    Collisions                      = 1

    Number of DSMC particles        = 7746
    Number of stuck particles       = 2000
    Number of free particles        = 5746
    Average linear kinetic energy   = 3.934285618e-20
    Average rotational energy       = 0
    Average vibrational energy      = 0
    Average electronic energy       = 0
    Total energy                    = 2.260640516e-14

Stage 1.0  ExecutionTime = 0.4 s  ClockTime = 0 s  Iteration 85 (0.001 s)

Time = 8.6e-08

    Collisions                      = 0

    Number of DSMC particles        = 7724
    Number of stuck particles       = 2000
    Number of free particles        = 5724
    Average linear kinetic energy   = 3.927083959e-20
    Average rotational energy       = 0
    Average vibrational energy      = 0
    Average electronic energy       = 0
    Total energy                    = 2.247862858e-14

Stage 1.0  ExecutionTime = 0.4 s  ClockTime = 0 s  Iteration 86 (0.001 s)

Time = 8.7e-08

    Collisions                      = 2

    Number of DSMC particles        = 7708
    Number of stuck particles       = 1991
    Number of free particles        = 5717
    Average linear kinetic energy   = 3.922870097e-20
    Average rotational energy       = 0
    Average vibrational energy      = 0
    Average electronic energy       = 0
    Total energy                    = 2.242704834e-14

Stage 1.0  ExecutionTime = 0.41 s  ClockTime = 0 s  Iteration 87 (0.01 s)

Time = 8.8e-08

    Collisions                      = 1

    Number of DSMC particles        = 7686
    Number of stuck particles       = 1999
    Number of free particles        = 5687
    Average linear kinetic energy   = 3.921765867e-20
    Average rotational energy       = 0
    Average vibrational energy      = 0
    Average electronic energy       = 0
    Total energy                    = 2.230308248e-14

Stage 1.0  ExecutionTime = 0.41 s  ClockTime = 0 s  Iteration 88 (0.001 s)

Time = 8.9e-08

    Collisions                      = 1

    Number of DSMC particles        = 7665
    Number of stuck particles       = 1999
    Number of free particles        = 5666
    Average linear kinetic energy   = 3.924901752e-20
    Average rotational energy       = 0
    Average vibrational energy      = 0
    Average electronic energy       = 0
    Total energy                    = 2.223849333e-14

Stage 1.0  ExecutionTime = 0.41 s  ClockTime = 0 s  Iteration 89 (0.001 s)

Time = 9e-08

    Collisions                      = 1

    Number of DSMC particles        = 7638
    Number of stuck particles       = 1999
    Number of free particles        = 5639
    Average linear kinetic energy   = 3.931463257e-20
    Average rotational energy       = 0
    Average vibrational energy      = 0
    Average electronic energy       = 0
    Total energy                    = 2.216952131e-14

Stage 1.0  ExecutionTime = 0.42 s  ClockTime = 0 s  Iteration 90 (0.01 s)

Time = 9.1e-08

    Collisions                      = 1

    Number of DSMC particles        = 7617
    Number of stuck particles       = 1999
    Number of free particles        = 5618
    Average linear kinetic energy   = 3.943718756e-20
    Average rotational energy       = 0
    Average vibrational energy      = 0
    Average electronic energy       = 0
    Total energy                    = 2.215581197e-14

Stage 1.0  ExecutionTime = 0.42 s  ClockTime = 0 s  Iteration 91 (0.001 s)

Time = 9.2e-08

    Collisions                      = 2

    Number of DSMC particles        = 7604
    Number of stuck particles       = 1996
    Number of free particles        = 5608
    Average linear kinetic energy   = 3.946073841e-20
    Average rotational energy       = 0
    Average vibrational energy      = 0
    Average electronic energy       = 0
    Total energy                    = 2.21295821e-14

Stage 1.0  ExecutionTime = 0.42 s  ClockTime = 0 s  Iteration 92 (0.001 s)

Time = 9.3e-08

    Collisions                      = 2

    Number of DSMC particles        = 7585
    Number of stuck particles       = 2000
    Number of free particles        = 5585
    Average linear kinetic energy   = 3.934311495e-20
    Average rotational energy       = 0
    Average vibrational energy      = 0
    Average electronic energy       = 0
    Total energy                    = 2.19731297e-14

Stage 1.0  ExecutionTime = 0.43 s  ClockTime = 0 s  Iteration 93 (0.01 s)

Time = 9.4e-08

    Collisions                      = 1

    Number of DSMC particles        = 7563
    Number of stuck particles       = 1997
    Number of free particles        = 5566
    Average linear kinetic energy   = 3.934314725e-20
    Average rotational energy       = 0
    Average vibrational energy      = 0
    Average electronic energy       = 0
    Total energy                    = 2.189839576e-14

Stage 1.0  ExecutionTime = 0.43 s  ClockTime = 0 s  Iteration 94 (0.001 s)

Time = 9.5e-08

    Collisions                      = 0

    Number of DSMC particles        = 7547
    Number of stuck particles       = 1996
    Number of free particles        = 5551
    Average linear kinetic energy   = 3.937776003e-20
    Average rotational energy       = 0
    Average vibrational energy      = 0
    Average electronic energy       = 0
    Total energy                    = 2.185859459e-14

Stage 1.0  ExecutionTime = 0.43 s  ClockTime = 0 s  Iteration 95 (0.001 s)

Time = 9.6e-08

    Collisions                      = 2

    Number of DSMC particles        = 7531
    Number of stuck particles       = 1998
    Number of free particles        = 5533
    Average linear kinetic energy   = 3.946023184e-20
    Average rotational energy       = 0
    Average vibrational energy      = 0
    Average electronic energy       = 0
    Total energy                    = 2.183334628e-14

Stage 1.0  ExecutionTime = 0.44 s  ClockTime = 0 s  Iteration 96 (0.01 s)

Time = 9.7e-08

    Collisions                      = 1

    Number of DSMC particles        = 7515
    Number of stuck particles       = 1998
    Number of free particles        = 5517
    Average linear kinetic energy   = 3.94354377e-20
    Average rotational energy       = 0
    Average vibrational energy      = 0
    Average electronic energy       = 0
    Total energy                    = 2.175653098e-14

Stage 1.0  ExecutionTime = 0.44 s  ClockTime = 0 s  Iteration 97 (0.001 s)

Time = 9.8e-08

    Collisions                      = 1

    Number of DSMC particles        = 7497
    Number of stuck particles       = 1999
    Number of free particles        = 5498
    Average linear kinetic energy   = 3.945445507e-20
    Average rotational energy       = 0
    Average vibrational energy      = 0
    Average electronic energy       = 0
    Total energy                    = 2.16920594e-14

Stage 1.0  ExecutionTime = 0.44 s  ClockTime = 0 s  Iteration 98 (0.001 s)

Time = 9.9e-08

    Collisions                      = 1

    Number of DSMC particles        = 7479
    Number of stuck particles       = 1998
    Number of free particles        = 5481
    Average linear kinetic energy   = 3.946012729e-20
    Average rotational energy       = 0
    Average vibrational energy      = 0
    Average electronic energy       = 0
    Total energy                    = 2.162809577e-14

Stage 1.0  ExecutionTime = 0.45 s  ClockTime = 0 s  Iteration 99 (0.01 s)

Time = 1e-07

    Collisions                      = 1

    Number of DSMC particles        = 7465
    Number of stuck particles       = 2000
    Number of free particles        = 5465
    Average linear kinetic energy   = 3.946951239e-20
    Average rotational energy       = 0
    Average vibrational energy      = 0
    Average electronic energy       = 0
    Total energy                    = 2.157008852e-14

Stage 1.0  ExecutionTime = 0.45 s  ClockTime = 0 s  Iteration 100 (0.001 s)

Time = 1.01e-07

    Collisions                      = 1

    Number of DSMC particles        = 7441
    Number of stuck particles       = 1998
    Number of free particles        = 5443
    Average linear kinetic energy   = 3.942501951e-20
    Average rotational energy       = 0
    Average vibrational energy      = 0
    Average electronic energy       = 0
    Total energy                    = 2.145903812e-14

Stage 1.0  ExecutionTime = 0.45 s  ClockTime = 0 s  Iteration 101 (0.001 s)

Time = 1.02e-07

    Collisions                      = 1

    Number of DSMC particles        = 7421
    Number of stuck particles       = 1999
    Number of free particles        = 5422
    Average linear kinetic energy   = 3.927794608e-20
    Average rotational energy       = 0
    Average vibrational energy      = 0
    Average electronic energy       = 0
    Total energy                    = 2.129650236e-14

Stage 1.0  ExecutionTime = 0.46 s  ClockTime = 0 s  Iteration 102 (0.01 s)

Time = 1.03e-07

    Collisions                      = 0

    Number of DSMC particles        = 7406
    Number of stuck particles       = 1998
    Number of free particles        = 5408
    Average linear kinetic energy   = 3.928109473e-20
    Average rotational energy       = 0
    Average vibrational energy      = 0
    Average electronic energy       = 0
    Total energy                    = 2.124321603e-14

Stage 1.0  ExecutionTime = 0.46 s  ClockTime = 0 s  Iteration 103 (0.001 s)

Time = 1.04e-07

    Collisions                      = 1

    Number of DSMC particles        = 7382
    Number of stuck particles       = 2000
    Number of free particles        = 5382
    Average linear kinetic energy   = 3.920674358e-20
    Average rotational energy       = 0
    Average vibrational energy      = 0
    Average electronic energy       = 0
    Total energy                    = 2.110106939e-14

Stage 1.0  ExecutionTime = 0.46 s  ClockTime = 0 s  Iteration 104 (0.001 s)

Time = 1.05e-07

    Collisions                      = 1

    Number of DSMC particles        = 7357
    Number of stuck particles       = 1998
    Number of free particles        = 5359
    Average linear kinetic energy   = 3.937254511e-20
    Average rotational energy       = 0
    Average vibrational energy      = 0
    Average electronic energy       = 0
    Total energy                    = 2.109974693e-14

Stage 1.0  ExecutionTime = 0.47 s  ClockTime = 0 s  Iteration 105 (0.01 s)

Time = 1.06e-07

    Collisions                      = 1

    Number of DSMC particles        = 7334
    Number of stuck particles       = 1997
    Number of free particles        = 5337
    Average linear kinetic energy   = 3.919971423e-20
    Average rotational energy       = 0
    Average vibrational energy      = 0
    Average electronic energy       = 0
    Total energy                    = 2.092088749e-14

Stage 1.0  ExecutionTime = 0.47 s  ClockTime = 0 s  Iteration 106 (0.001 s)

Time = 1.07e-07

    Collisions                      = 2

    Number of DSMC particles        = 7311
    Number of stuck particles       = 2000
    Number of free particles        = 5311
    Average linear kinetic energy   = 3.929909374e-20
    Average rotational energy       = 0
    Average vibrational energy      = 0
    Average electronic energy       = 0
    Total energy                    = 2.087174869e-14

Stage 1.0  ExecutionTime = 0.47 s  ClockTime = 0 s  Iteration 107 (0.001 s)

Time = 1.08e-07

    Collisions                      = 1

    Number of DSMC particles        = 7296
    Number of stuck particles       = 2000
    Number of free particles        = 5296
    Average linear kinetic energy   = 3.912826466e-20
    Average rotational energy       = 0
    Average vibrational energy      = 0
    Average electronic energy       = 0
    Total energy                    = 2.072232896e-14

Stage 1.0  ExecutionTime = 0.48 s  ClockTime = 0 s  Iteration 108 (0.01 s)

Time = 1.09e-07

    Collisions                      = 1

    Number of DSMC particles        = 7275
    Number of stuck particles       = 1994
    Number of free particles        = 5281
    Average linear kinetic energy   = 3.902827782e-20
    Average rotational energy       = 0
    Average vibrational energy      = 0
    Average electronic energy       = 0
    Total energy                    = 2.061083351e-14

Stage 1.0  ExecutionTime = 0.48 s  ClockTime = 0 s  Iteration 109 (0.001 s)

Time = 1.1e-07

    Collisions                      = 1

    Number of DSMC particles        = 7256
    Number of stuck particles       = 1999
    Number of free particles        = 5257
    Average linear kinetic energy   = 3.890613248e-20
    Average rotational energy       = 0
    Average vibrational energy      = 0
    Average electronic energy       = 0
    Total energy                    = 2.045295385e-14

Stage 1.0  ExecutionTime = 0.48 s  ClockTime = 0 s  Iteration 110 (0.001 s)

Time = 1.11e-07

    Collisions                      = 1

    Number of DSMC particles        = 7237
    Number of stuck particles       = 1997
    Number of free particles        = 5240
    Average linear kinetic energy   = 3.899559601e-20
    Average rotational energy       = 0
    Average vibrational energy      = 0
    Average electronic energy       = 0
    Total energy                    = 2.043369231e-14

Stage 1.0  ExecutionTime = 0.49 s  ClockTime = 0 s  Iteration 111 (0.01 s)

Time = 1.12e-07

    Collisions                      = 1

    Number of DSMC particles        = 7216
    Number of stuck particles       = 1996
    Number of free particles        = 5220
    Average linear kinetic energy   = 3.898440829e-20
    Average rotational energy       = 0
    Average vibrational energy      = 0
    Average electronic energy       = 0
    Total energy                    = 2.034986113e-14

Stage 1.0  ExecutionTime = 0.49 s  ClockTime = 0 s  Iteration 112 (0.001 s)

Time = 1.13e-07

    Collisions                      = 1

    Number of DSMC particles        = 7189
    Number of stuck particles       = 1999
    Number of free particles        = 5190
    Average linear kinetic energy   = 3.89029775e-20
    Average rotational energy       = 0
    Average vibrational energy      = 0
    Average electronic energy       = 0
    Total energy                    = 2.019064532e-14

Stage 1.0  ExecutionTime = 0.49 s  ClockTime = 0 s  Iteration 113 (0.001 s)

Time = 1.14e-07

    Collisions                      = 0

    Number of DSMC particles        = 7174
    Number of stuck particles       = 1999
    Number of free particles        = 5175
    Average linear kinetic energy   = 3.901292507e-20
    Average rotational energy       = 0
    Average vibrational energy      = 0
    Average electronic energy       = 0
    Total energy                    = 2.018918872e-14

Stage 1.0  ExecutionTime = 0.49 s  ClockTime = 0 s  Iteration 114 (0.001 s)

Time = 1.15e-07

    Collisions                      = 2

    Number of DSMC particles        = 7155
    Number of stuck particles       = 1998
    Number of free particles        = 5157
    Average linear kinetic energy   = 3.904749664e-20
    Average rotational energy       = 0
    Average vibrational energy      = 0
    Average electronic energy       = 0
    Total energy                    = 2.013679401e-14

Stage 1.0  ExecutionTime = 0.5 s  ClockTime = 0 s  Iteration 115 (0.01 s)

Time = 1.16e-07

    Collisions                      = 1

    Number of DSMC particles        = 7143
    Number of stuck particles       = 1999
    Number of free particles        = 5144
    Average linear kinetic energy   = 3.934196932e-20
    Average rotational energy       = 0
    Average vibrational energy      = 0
    Average electronic energy       = 0
    Total energy                    = 2.023750902e-14

Stage 1.0  ExecutionTime = 0.5 s  ClockTime = 0 s  Iteration 116 (0.001 s)

Time = 1.17e-07

    Collisions                      = 2

    Number of DSMC particles        = 7129
    Number of stuck particles       = 1996
    Number of free particles        = 5133
    Average linear kinetic energy   = 3.947285068e-20
    Average rotational energy       = 0
    Average vibrational energy      = 0
    Average electronic energy       = 0
    Total energy                    = 2.026141425e-14

Stage 1.0  ExecutionTime = 0.5 s  ClockTime = 0 s  Iteration 117 (0.001 s)

Time = 1.18e-07

    Collisions                      = 1

    Number of DSMC particles        = 7112
    Number of stuck particles       = 2000
    Number of free particles        = 5112
    Average linear kinetic energy   = 3.936468828e-20
    Average rotational energy       = 0
    Average vibrational energy      = 0
    Average electronic energy       = 0
    Total energy                    = 2.012322865e-14

Stage 1.0  ExecutionTime = 0.51 s  ClockTime = 0 s  Iteration 118 (0.01 s)

Time = 1.19e-07

    Collisions                      = 1

    Number of DSMC particles        = 7097
    Number of stuck particles       = 2000
    Number of free particles        = 5097
    Average linear kinetic energy   = 3.956166729e-20
    Average rotational energy       = 0
    Average vibrational energy      = 0
    Average electronic energy       = 0
    Total energy                    = 2.016458182e-14

Stage 1.0  ExecutionTime = 0.51 s  ClockTime = 0 s  Iteration 119 (0.001 s)

Time = 1.2e-07

    Collisions                      = 1

    Number of DSMC particles        = 7079
    Number of stuck particles       = 1999
    Number of free particles        = 5080
    Average linear kinetic energy   = 3.94771475e-20
    Average rotational energy       = 0
    Average vibrational energy      = 0
    Average electronic energy       = 0
    Total energy                    = 2.005439093e-14

Stage 1.0  ExecutionTime = 0.51 s  ClockTime = 0 s  Iteration 120 (0.001 s)

Time = 1.21e-07

    Collisions                      = 1

    Number of DSMC particles        = 7062
    Number of stuck particles       = 1996
    Number of free particles        = 5066
    Average linear kinetic energy   = 3.956631231e-20
    Average rotational energy       = 0
    Average vibrational energy      = 0
    Average electronic energy       = 0
    Total energy                    = 2.004429381e-14

Stage 1.0  ExecutionTime = 0.52 s  ClockTime = 0 s  Iteration 121 (0.01 s)

Time = 1.22e-07

    Collisions                      = 2

    Number of DSMC particles        = 7034
    Number of stuck particles       = 1997
    Number of free particles        = 5037
    Average linear kinetic energy   = 3.94821961e-20
    Average rotational energy       = 0
    Average vibrational energy      = 0
    Average electronic energy       = 0
    Total energy                    = 1.988718217e-14

Stage 1.0  ExecutionTime = 0.52 s  ClockTime = 0 s  Iteration 122 (0.001 s)

Time = 1.23e-07

    Collisions                      = 0

    Number of DSMC particles        = 7013
    Number of stuck particles       = 1999
    Number of free particles        = 5014
    Average linear kinetic energy   = 3.948659188e-20
    Average rotational energy       = 0
    Average vibrational energy      = 0
    Average electronic energy       = 0
    Total energy                    = 1.979857717e-14

Stage 1.0  ExecutionTime = 0.52 s  ClockTime = 0 s  Iteration 123 (0.001 s)

Time = 1.24e-07

    Collisions                      = 1

    Number of DSMC particles        = 6992
    Number of stuck particles       = 1999
    Number of free particles        = 4993
    Average linear kinetic energy   = 3.956022583e-20
    Average rotational energy       = 0
    Average vibrational energy      = 0
    Average electronic energy       = 0
    Total energy                    = 1.975242076e-14

Stage 1.0  ExecutionTime = 0.53 s  ClockTime = 0 s  Iteration 124 (0.01 s)

Time = 1.25e-07

    Collisions                      = 1

    Number of DSMC particles        = 6981
    Number of stuck particles       = 1997
    Number of free particles        = 4984
    Average linear kinetic energy   = 3.956591042e-20
    Average rotational energy       = 0
    Average vibrational energy      = 0
    Average electronic energy       = 0
    Total energy                    = 1.971964975e-14

Stage 1.0  ExecutionTime = 0.53 s  ClockTime = 0 s  Iteration 125 (0.001 s)

Time = 1.26e-07

    Collisions                      = 2

    Number of DSMC particles        = 6968
    Number of stuck particles       = 1999
    Number of free particles        = 4969
    Average linear kinetic energy   = 3.96281394e-20
    Average rotational energy       = 0
    Average vibrational energy      = 0
    Average electronic energy       = 0
    Total energy                    = 1.969122247e-14

Stage 1.0  ExecutionTime = 0.53 s  ClockTime = 0 s  Iteration 126 (0.001 s)

Time = 1.27e-07

    Collisions                      = 0

    Number of DSMC particles        = 6943
    Number of stuck particles       = 2000
    Number of free particles        = 4943
    Average linear kinetic energy   = 3.953791836e-20
    Average rotational energy       = 0
    Average vibrational energy      = 0
    Average electronic energy       = 0
    Total energy                    = 1.954359305e-14

Stage 1.0  ExecutionTime = 0.53 s  ClockTime = 0 s  Iteration 127 (0.001 s)

Time = 1.28e-07

    Collisions                      = 0

    Number of DSMC particles        = 6927
    Number of stuck particles       = 1998
    Number of free particles        = 4929
    Average linear kinetic energy   = 3.956797532e-20
    Average rotational energy       = 0
    Average vibrational energy      = 0
    Average electronic energy       = 0
    Total energy                    = 1.950305504e-14

Stage 1.0  ExecutionTime = 0.54 s  ClockTime = 0 s  Iteration 128 (0.01 s)

Time = 1.29e-07

    Collisions                      = 1

    Number of DSMC particles        = 6910
    Number of stuck particles       = 1996
    Number of free particles        = 4914
    Average linear kinetic energy   = 3.970085197e-20
    Average rotational energy       = 0
    Average vibrational energy      = 0
    Average electronic energy       = 0
    Total energy                    = 1.950899866e-14

Stage 1.0  ExecutionTime = 0.54 s  ClockTime = 0 s  Iteration 129 (0.001 s)

Time = 1.3e-07

    Collisions                      = 1

    Number of DSMC particles        = 6897
    Number of stuck particles       = 2000
    Number of free particles        = 4897
    Average linear kinetic energy   = 3.964198425e-20
    Average rotational energy       = 0
    Average vibrational energy      = 0
    Average electronic energy       = 0
    Total energy                    = 1.941267969e-14

Stage 1.0  ExecutionTime = 0.54 s  ClockTime = 0 s  Iteration 130 (0.001 s)

Time = 1.31e-07

    Collisions                      = 1

    Number of DSMC particles        = 6881
    Number of stuck particles       = 1998
    Number of free particles        = 4883
    Average linear kinetic energy   = 3.952703511e-20
    Average rotational energy       = 0
    Average vibrational energy      = 0
    Average electronic energy       = 0
    Total energy                    = 1.930105124e-14

Stage 1.0  ExecutionTime = 0.55 s  ClockTime = 0 s  Iteration 131 (0.01 s)

Time = 1.32e-07

    Collisions                      = 0

    Number of DSMC particles        = 6869
    Number of stuck particles       = 1999
    Number of free particles        = 4870
    Average linear kinetic energy   = 3.972538158e-20
    Average rotational energy       = 0
    Average vibrational energy      = 0
    Average electronic energy       = 0
    Total energy                    = 1.934626083e-14

Stage 1.0  ExecutionTime = 0.55 s  ClockTime = 0 s  Iteration 132 (0.001 s)

Time = 1.33e-07

    Collisions                      = 0

    Number of DSMC particles        = 6854
    Number of stuck particles       = 2000
    Number of free particles        = 4854
    Average linear kinetic energy   = 3.964244885e-20
    Average rotational energy       = 0
    Average vibrational energy      = 0
    Average electronic energy       = 0
    Total energy                    = 1.924244467e-14

Stage 1.0  ExecutionTime = 0.55 s  ClockTime = 0 s  Iteration 133 (0.001 s)

Time = 1.34e-07

    Collisions                      = 2

    Number of DSMC particles        = 6833
    Number of stuck particles       = 1999
    Number of free particles        = 4834
    Average linear kinetic energy   = 3.972059516e-20
    Average rotational energy       = 0
    Average vibrational energy      = 0
    Average electronic energy       = 0
    Total energy                    = 1.92009357e-14

Stage 1.0  ExecutionTime = 0.56 s  ClockTime = 0 s  Iteration 134 (0.01 s)

Time = 1.35e-07

    Collisions                      = 0

    Number of DSMC particles        = 6813
    Number of stuck particles       = 2000
    Number of free particles        = 4813
    Average linear kinetic energy   = 3.956645315e-20
    Average rotational energy       = 0
    Average vibrational energy      = 0
    Average electronic energy       = 0
    Total energy                    = 1.90433339e-14

Stage 1.0  ExecutionTime = 0.56 s  ClockTime = 0 s  Iteration 135 (0.001 s)

Time = 1.36e-07

    Collisions                      = 1

    Number of DSMC particles        = 6797
    Number of stuck particles       = 1998
    Number of free particles        = 4799
    Average linear kinetic energy   = 3.957238779e-20
    Average rotational energy       = 0
    Average vibrational energy      = 0
    Average electronic energy       = 0
    Total energy                    = 1.89907889e-14

Stage 1.0  ExecutionTime = 0.56 s  ClockTime = 0 s  Iteration 136 (0.001 s)

Time = 1.37e-07

    Collisions                      = 2

    Number of DSMC particles        = 6778
    Number of stuck particles       = 2000
    Number of free particles        = 4778
    Average linear kinetic energy   = 3.969486993e-20
    Average rotational energy       = 0
    Average vibrational energy      = 0
    Average electronic energy       = 0
    Total energy                    = 1.896620885e-14

Stage 1.0  ExecutionTime = 0.56 s  ClockTime = 0 s  Iteration 137 (0.001 s)

Time = 1.38e-07

    Collisions                      = 0

    Number of DSMC particles        = 6761
    Number of stuck particles       = 1999
    Number of free particles        = 4762
    Average linear kinetic energy   = 3.978109753e-20
    Average rotational energy       = 0
    Average vibrational energy      = 0
    Average electronic energy       = 0
    Total energy                    = 1.894375865e-14

Stage 1.0  ExecutionTime = 0.57 s  ClockTime = 0 s  Iteration 138 (0.01 s)

Time = 1.39e-07

    Collisions                      = 0

    Number of DSMC particles        = 6745
    Number of stuck particles       = 2000
    Number of free particles        = 4745
    Average linear kinetic energy   = 3.954371793e-20
    Average rotational energy       = 0
    Average vibrational energy      = 0
    Average electronic energy       = 0
    Total energy                    = 1.876349416e-14

Stage 1.0  ExecutionTime = 0.57 s  ClockTime = 0 s  Iteration 139 (0.001 s)

Time = 1.4e-07

    Collisions                      = 1

    Number of DSMC particles        = 6728
    Number of stuck particles       = 1999
    Number of free particles        = 4729
    Average linear kinetic energy   = 3.952115661e-20
    Average rotational energy       = 0
    Average vibrational energy      = 0
    Average electronic energy       = 0
    Total energy                    = 1.868955496e-14

Stage 1.0  ExecutionTime = 0.57 s  ClockTime = 0 s  Iteration 140 (0.001 s)

Time = 1.41e-07

    Collisions                      = 2

    Number of DSMC particles        = 6707
    Number of stuck particles       = 1990
    Number of free particles        = 4717
    Average linear kinetic energy   = 3.954826552e-20
    Average rotational energy       = 0
    Average vibrational energy      = 0
    Average electronic energy       = 0
    Total energy                    = 1.865491685e-14

Stage 1.0  ExecutionTime = 0.58 s  ClockTime = 0 s  Iteration 141 (0.01 s)

Time = 1.42e-07

    Collisions                      = 0

    Number of DSMC particles        = 6693
    Number of stuck particles       = 2000
    Number of free particles        = 4693
    Average linear kinetic energy   = 3.959132621e-20
    Average rotational energy       = 0
    Average vibrational energy      = 0
    Average electronic energy       = 0
    Total energy                    = 1.858020939e-14

Stage 1.0  ExecutionTime = 0.58 s  ClockTime = 0 s  Iteration 142 (0.001 s)

Time = 1.43e-07

    Collisions                      = 0

    Number of DSMC particles        = 6666
    Number of stuck particles       = 1991
    Number of free particles        = 4675
    Average linear kinetic energy   = 3.953735483e-20
    Average rotational energy       = 0
    Average vibrational energy      = 0
    Average electronic energy       = 0
    Total energy                    = 1.848371338e-14

Stage 1.0  ExecutionTime = 0.58 s  ClockTime = 0 s  Iteration 143 (0.001 s)

Time = 1.44e-07

    Collisions                      = 1

    Number of DSMC particles        = 6649
    Number of stuck particles       = 1999
    Number of free particles        = 4650
    Average linear kinetic energy   = 3.953404033e-20
    Average rotational energy       = 0
    Average vibrational energy      = 0
    Average electronic energy       = 0
    Total energy                    = 1.838332875e-14

Stage 1.0  ExecutionTime = 0.58 s  ClockTime = 0 s  Iteration 144 (0.001 s)

Time = 1.45e-07

    Collisions                      = 1

    Number of DSMC particles        = 6634
    Number of stuck particles       = 2000
    Number of free particles        = 4634
    Average linear kinetic energy   = 3.941907355e-20
    Average rotational energy       = 0
    Average vibrational energy      = 0
    Average electronic energy       = 0
    Total energy                    = 1.826679868e-14

Stage 1.0  ExecutionTime = 0.59 s  ClockTime = 0 s  Iteration 145 (0.01 s)

Time = 1.46e-07

    Collisions                      = 1

    Number of DSMC particles        = 6618
    Number of stuck particles       = 1999
    Number of free particles        = 4619
    Average linear kinetic energy   = 3.950246045e-20
    Average rotational energy       = 0
    Average vibrational energy      = 0
    Average electronic energy       = 0
    Total energy                    = 1.824618648e-14

Stage 1.0  ExecutionTime = 0.59 s  ClockTime = 0 s  Iteration 146 (0.001 s)

Time = 1.47e-07

    Collisions                      = 1

    Number of DSMC particles        = 6596
    Number of stuck particles       = 1998
    Number of free particles        = 4598
    Average linear kinetic energy   = 3.959595881e-20
    Average rotational energy       = 0
    Average vibrational energy      = 0
    Average electronic energy       = 0
    Total energy                    = 1.820622186e-14

Stage 1.0  ExecutionTime = 0.59 s  ClockTime = 0 s  Iteration 147 (0.001 s)

Time = 1.48e-07

    Collisions                      = 1

    Number of DSMC particles        = 6575
    Number of stuck particles       = 2000
    Number of free particles        = 4575
    Average linear kinetic energy   = 3.979550363e-20
    Average rotational energy       = 0
    Average vibrational energy      = 0
    Average electronic energy       = 0
    Total energy                    = 1.820644291e-14

Stage 1.0  ExecutionTime = 0.6 s  ClockTime = 0 s  Iteration 148 (0.01 s)

Time = 1.49e-07

    Collisions                      = 1

    Number of DSMC particles        = 6559
    Number of stuck particles       = 1996
    Number of free particles        = 4563
    Average linear kinetic energy   = 3.979254016e-20
    Average rotational energy       = 0
    Average vibrational energy      = 0
    Average electronic energy       = 0
    Total energy                    = 1.815733608e-14

Stage 1.0  ExecutionTime = 0.6 s  ClockTime = 0 s  Iteration 149 (0.001 s)

Time = 1.5e-07

    Collisions                      = 2

    Number of DSMC particles        = 6548
    Number of stuck particles       = 1999
    Number of free particles        = 4549
    Average linear kinetic energy   = 3.981902535e-20
    Average rotational energy       = 0
    Average vibrational energy      = 0
    Average electronic energy       = 0
    Total energy                    = 1.811367463e-14

Stage 1.0  ExecutionTime = 0.6 s  ClockTime = 0 s  Iteration 150 (0.001 s)

Time = 1.51e-07

    Collisions                      = 1

    Number of DSMC particles        = 6534
    Number of stuck particles       = 1997
    Number of free particles        = 4537
    Average linear kinetic energy   = 3.957505704e-20
    Average rotational energy       = 0
    Average vibrational energy      = 0
    Average electronic energy       = 0
    Total energy                    = 1.795520338e-14

Stage 1.0  ExecutionTime = 0.6 s  ClockTime = 0 s  Iteration 151 (0.001 s)

Time = 1.52e-07

    Collisions                      = 0

    Number of DSMC particles        = 6515
    Number of stuck particles       = 1998
    Number of free particles        = 4517
    Average linear kinetic energy   = 3.969817135e-20
    Average rotational energy       = 0
    Average vibrational energy      = 0
    Average electronic energy       = 0
    Total energy                    = 1.7931664e-14

Stage 1.0  ExecutionTime = 0.61 s  ClockTime = 0 s  Iteration 152 (0.01 s)

Time = 1.53e-07

    Collisions                      = 0

    Number of DSMC particles        = 6498
    Number of stuck particles       = 1999
    Number of free particles        = 4499
    Average linear kinetic energy   = 3.963699428e-20
    Average rotational energy       = 0
    Average vibrational energy      = 0
    Average electronic energy       = 0
    Total energy                    = 1.783268372e-14

Stage 1.0  ExecutionTime = 0.61 s  ClockTime = 0 s  Iteration 153 (0.001 s)

Time = 1.54e-07

    Collisions                      = 1

    Number of DSMC particles        = 6477
    Number of stuck particles       = 1997
    Number of free particles        = 4480
    Average linear kinetic energy   = 3.952278045e-20
    Average rotational energy       = 0
    Average vibrational energy      = 0
    Average electronic energy       = 0
    Total energy                    = 1.770620564e-14

Stage 1.0  ExecutionTime = 0.61 s  ClockTime = 0 s  Iteration 154 (0.001 s)

Time = 1.55e-07

    Collisions                      = 1

    Number of DSMC particles        = 6456
    Number of stuck particles       = 1999
    Number of free particles        = 4457
    Average linear kinetic energy   = 3.944706223e-20
    Average rotational energy       = 0
    Average vibrational energy      = 0
    Average electronic energy       = 0
    Total energy                    = 1.758155564e-14

Stage 1.0  ExecutionTime = 0.61 s  ClockTime = 0 s  Iteration 155 (0.001 s)

Time = 1.56e-07

    Collisions                      = 2

    Number of DSMC particles        = 6444
    Number of stuck particles       = 1999
    Number of free particles        = 4445
    Average linear kinetic energy   = 3.962807726e-20
    Average rotational energy       = 0
    Average vibrational energy      = 0
    Average electronic energy       = 0
    Total energy                    = 1.761468034e-14

Stage 1.0  ExecutionTime = 0.62 s  ClockTime = 0 s  Iteration 156 (0.01 s)

Time = 1.57e-07

    Collisions                      = 1

    Number of DSMC particles        = 6430
    Number of stuck particles       = 1988
    Number of free particles        = 4442
    Average linear kinetic energy   = 3.953620251e-20
    Average rotational energy       = 0
    Average vibrational energy      = 0
    Average electronic energy       = 0
    Total energy                    = 1.756198115e-14

Stage 1.0  ExecutionTime = 0.62 s  ClockTime = 0 s  Iteration 157 (0.001 s)

Time = 1.58e-07

    Collisions                      = 0

    Number of DSMC particles        = 6411
    Number of stuck particles       = 1988
    Number of free particles        = 4423
    Average linear kinetic energy   = 3.937415472e-20
    Average rotational energy       = 0
    Average vibrational energy      = 0
    Average electronic energy       = 0
    Total energy                    = 1.741518863e-14

Stage 1.0  ExecutionTime = 0.62 s  ClockTime = 0 s  Iteration 158 (0.001 s)

Time = 1.59e-07

    Collisions                      = 0

    Number of DSMC particles        = 6389
    Number of stuck particles       = 1996
    Number of free particles        = 4393
[...]
    Average vibrational energy      = 0
    Average electronic energy       = 0
    Total energy                    = 1.037024764e-14

Stage 1.0  ExecutionTime = 2.06 s  ClockTime = 2 s  Iteration 959 (0.001 s)

Time = 9.6e-07

    No collisions
    Number of DSMC particles        = 3999
    Number of stuck particles       = 1516
    Number of free particles        = 2483
    Average linear kinetic energy   = 4.161109405e-20
    Average rotational energy       = 0
    Average vibrational energy      = 0
    Average electronic energy       = 0
    Total energy                    = 1.033203465e-14

Stage 1.0  ExecutionTime = 2.06 s  ClockTime = 2 s  Iteration 960 (0.001 s)

Time = 9.61e-07

    Collisions                      = 0

    Number of DSMC particles        = 3999
    Number of stuck particles       = 1525
    Number of free particles        = 2474
    Average linear kinetic energy   = 4.157868843e-20
    Average rotational energy       = 0
    Average vibrational energy      = 0
    Average electronic energy       = 0
    Total energy                    = 1.028656752e-14

Stage 1.0  ExecutionTime = 2.07 s  ClockTime = 2 s  Iteration 961 (0.01 s)

Time = 9.62e-07

    No collisions
    Number of DSMC particles        = 3999
    Number of stuck particles       = 1530
    Number of free particles        = 2469
    Average linear kinetic energy   = 4.158662802e-20
    Average rotational energy       = 0
    Average vibrational energy      = 0
    Average electronic energy       = 0
    Total energy                    = 1.026773846e-14

Stage 1.0  ExecutionTime = 2.07 s  ClockTime = 2 s  Iteration 962 (0.001 s)

Time = 9.63e-07

    Collisions                      = 0

    Number of DSMC particles        = 3999
    Number of stuck particles       = 1534
    Number of free particles        = 2465
    Average linear kinetic energy   = 4.129744453e-20
    Average rotational energy       = 0
    Average vibrational energy      = 0
    Average electronic energy       = 0
    Total energy                    = 1.017982008e-14

Stage 1.0  ExecutionTime = 2.07 s  ClockTime = 2 s  Iteration 963 (0.001 s)

Time = 9.64e-07

    No collisions
    Number of DSMC particles        = 3999
    Number of stuck particles       = 1537
    Number of free particles        = 2462
    Average linear kinetic energy   = 4.122471068e-20
    Average rotational energy       = 0
    Average vibrational energy      = 0
    Average electronic energy       = 0
    Total energy                    = 1.014952377e-14

Stage 1.0  ExecutionTime = 2.07 s  ClockTime = 2 s  Iteration 964 (0.001 s)

Time = 9.65e-07

    Collisions                      = 1

    Number of DSMC particles        = 3999
    Number of stuck particles       = 1531
    Number of free particles        = 2468
    Average linear kinetic energy   = 4.104805181e-20
    Average rotational energy       = 0
    Average vibrational energy      = 0
    Average electronic energy       = 0
    Total energy                    = 1.013065919e-14

Stage 1.0  ExecutionTime = 2.07 s  ClockTime = 2 s  Iteration 965 (0.001 s)

Time = 9.66e-07

    No collisions
    Number of DSMC particles        = 3999
    Number of stuck particles       = 1544
    Number of free particles        = 2455
    Average linear kinetic energy   = 4.085557937e-20
    Average rotational energy       = 0
    Average vibrational energy      = 0
    Average electronic energy       = 0
    Total energy                    = 1.003004474e-14

Stage 1.0  ExecutionTime = 2.08 s  ClockTime = 2 s  Iteration 966 (0.01 s)

Time = 9.67e-07

    Collisions                      = 1

    Number of DSMC particles        = 3999
    Number of stuck particles       = 1554
    Number of free particles        = 2445
    Average linear kinetic energy   = 4.086969466e-20
    Average rotational energy       = 0
    Average vibrational energy      = 0
    Average electronic energy       = 0
    Total energy                    = 9.992640344e-15

Stage 1.0  ExecutionTime = 2.08 s  ClockTime = 2 s  Iteration 967 (0.001 s)

Time = 9.68e-07

    No collisions
    Number of DSMC particles        = 3999
    Number of stuck particles       = 1559
    Number of free particles        = 2440
    Average linear kinetic energy   = 4.062380441e-20
    Average rotational energy       = 0
    Average vibrational energy      = 0
    Average electronic energy       = 0
    Total energy                    = 9.912208276e-15

Stage 1.0  ExecutionTime = 2.08 s  ClockTime = 2 s  Iteration 968 (0.001 s)

Time = 9.69e-07

    No collisions
    Number of DSMC particles        = 3999
    Number of stuck particles       = 1575
    Number of free particles        = 2424
    Average linear kinetic energy   = 4.004310056e-20
    Average rotational energy       = 0
    Average vibrational energy      = 0
    Average electronic energy       = 0
    Total energy                    = 9.706447576e-15

Stage 1.0  ExecutionTime = 2.08 s  ClockTime = 2 s  Iteration 969 (0.001 s)

Time = 9.7e-07

    Collisions                      = 0

    Number of DSMC particles        = 3999
    Number of stuck particles       = 1575
    Number of free particles        = 2424
    Average linear kinetic energy   = 4.003427152e-20
    Average rotational energy       = 0
    Average vibrational energy      = 0
    Average electronic energy       = 0
    Total energy                    = 9.704307417e-15

Stage 1.0  ExecutionTime = 2.08 s  ClockTime = 2 s  Iteration 970 (0.001 s)

Time = 9.71e-07

    No collisions
    Number of DSMC particles        = 3999
    Number of stuck particles       = 1562
    Number of free particles        = 2437
    Average linear kinetic energy   = 3.99065024e-20
    Average rotational energy       = 0
    Average vibrational energy      = 0
    Average electronic energy       = 0
    Total energy                    = 9.725214636e-15

Stage 1.0  ExecutionTime = 2.09 s  ClockTime = 2 s  Iteration 971 (0.01 s)

Time = 9.72e-07

    Collisions                      = 0

    Number of DSMC particles        = 3999
    Number of stuck particles       = 1552
    Number of free particles        = 2447
    Average linear kinetic energy   = 3.971767446e-20
    Average rotational energy       = 0
    Average vibrational energy      = 0
    Average electronic energy       = 0
    Total energy                    = 9.718914939e-15

Stage 1.0  ExecutionTime = 2.09 s  ClockTime = 2 s  Iteration 972 (0.001 s)

Time = 9.73e-07

    No collisions
    Number of DSMC particles        = 3999
    Number of stuck particles       = 1552
    Number of free particles        = 2447
    Average linear kinetic energy   = 3.997729187e-20
    Average rotational energy       = 0
    Average vibrational energy      = 0
    Average electronic energy       = 0
    Total energy                    = 9.78244332e-15

Stage 1.0  ExecutionTime = 2.09 s  ClockTime = 2 s  Iteration 973 (0.001 s)

Time = 9.74e-07

    Collisions                      = 1

    Number of DSMC particles        = 3999
    Number of stuck particles       = 1544
    Number of free particles        = 2455
    Average linear kinetic energy   = 4.003540926e-20
    Average rotational energy       = 0
    Average vibrational energy      = 0
    Average electronic energy       = 0
    Total energy                    = 9.828692974e-15

Stage 1.0  ExecutionTime = 2.09 s  ClockTime = 2 s  Iteration 974 (0.001 s)

Time = 9.75e-07

    No collisions
    Number of DSMC particles        = 3999
    Number of stuck particles       = 1559
    Number of free particles        = 2440
    Average linear kinetic energy   = 3.998122086e-20
    Average rotational energy       = 0
    Average vibrational energy      = 0
    Average electronic energy       = 0
    Total energy                    = 9.755417889e-15

Stage 1.0  ExecutionTime = 2.1 s  ClockTime = 2 s  Iteration 975 (0.01 s)

Time = 9.76e-07

    Collisions                      = 0

    Number of DSMC particles        = 3999
    Number of stuck particles       = 1561
    Number of free particles        = 2438
    Average linear kinetic energy   = 3.98686827e-20
    Average rotational energy       = 0
    Average vibrational energy      = 0
    Average electronic energy       = 0
    Total energy                    = 9.719984843e-15

Stage 1.0  ExecutionTime = 2.1 s  ClockTime = 2 s  Iteration 976 (0.001 s)

Time = 9.77e-07

    No collisions
    Number of DSMC particles        = 3999
    Number of stuck particles       = 1566
    Number of free particles        = 2433
    Average linear kinetic energy   = 3.964750731e-20
    Average rotational energy       = 0
    Average vibrational energy      = 0
    Average electronic energy       = 0
    Total energy                    = 9.646238529e-15

Stage 1.0  ExecutionTime = 2.11 s  ClockTime = 2 s  Iteration 977 (0.01 s)

Time = 9.78e-07

    Collisions                      = 0

    Number of DSMC particles        = 3999
    Number of stuck particles       = 1562
    Number of free particles        = 2437
    Average linear kinetic energy   = 3.960442507e-20
    Average rotational energy       = 0
    Average vibrational energy      = 0
    Average electronic energy       = 0
    Total energy                    = 9.65159839e-15

Stage 1.0  ExecutionTime = 2.11 s  ClockTime = 2 s  Iteration 978 (0.001 s)

Time = 9.79e-07

    No collisions
    Number of DSMC particles        = 3999
    Number of stuck particles       = 1563
    Number of free particles        = 2436
    Average linear kinetic energy   = 3.948964806e-20
    Average rotational energy       = 0
    Average vibrational energy      = 0
    Average electronic energy       = 0
    Total energy                    = 9.619678266e-15

Stage 1.0  ExecutionTime = 2.11 s  ClockTime = 2 s  Iteration 979 (0.001 s)

Time = 9.8e-07

    Collisions                      = 1

    Number of DSMC particles        = 3999
    Number of stuck particles       = 1547
    Number of free particles        = 2452
    Average linear kinetic energy   = 3.971526862e-20
    Average rotational energy       = 0
    Average vibrational energy      = 0
    Average electronic energy       = 0
    Total energy                    = 9.738183866e-15

Stage 1.0  ExecutionTime = 2.12 s  ClockTime = 2 s  Iteration 980 (0.01 s)

Time = 9.81e-07

    No collisions
    Number of DSMC particles        = 3999
    Number of stuck particles       = 1542
    Number of free particles        = 2457
    Average linear kinetic energy   = 3.993318238e-20
    Average rotational energy       = 0
    Average vibrational energy      = 0
    Average electronic energy       = 0
    Total energy                    = 9.81158291e-15

Stage 1.0  ExecutionTime = 2.12 s  ClockTime = 2 s  Iteration 981 (0.001 s)

Time = 9.82e-07

    Collisions                      = 1

    Number of DSMC particles        = 3999
    Number of stuck particles       = 1535
    Number of free particles        = 2464
    Average linear kinetic energy   = 4.034653669e-20
    Average rotational energy       = 0
    Average vibrational energy      = 0
    Average electronic energy       = 0
    Total energy                    = 9.941386641e-15

Stage 1.0  ExecutionTime = 2.12 s  ClockTime = 2 s  Iteration 982 (0.001 s)

Time = 9.83e-07

    No collisions
    Number of DSMC particles        = 3999
    Number of stuck particles       = 1549
    Number of free particles        = 2450
    Average linear kinetic energy   = 4.028544832e-20
    Average rotational energy       = 0
    Average vibrational energy      = 0
    Average electronic energy       = 0
    Total energy                    = 9.869934838e-15

Stage 1.0  ExecutionTime = 2.12 s  ClockTime = 2 s  Iteration 983 (0.001 s)

Time = 9.84e-07

    Collisions                      = 1

    Number of DSMC particles        = 3999
    Number of stuck particles       = 1550
    Number of free particles        = 2449
    Average linear kinetic energy   = 4.032014029e-20
    Average rotational energy       = 0
    Average vibrational energy      = 0
    Average electronic energy       = 0
    Total energy                    = 9.874402357e-15

Stage 1.0  ExecutionTime = 2.12 s  ClockTime = 2 s  Iteration 984 (0.001 s)

Time = 9.85e-07

    No collisions
    Number of DSMC particles        = 3999
    Number of stuck particles       = 1550
    Number of free particles        = 2449
    Average linear kinetic energy   = 4.032071417e-20
    Average rotational energy       = 0
    Average vibrational energy      = 0
    Average electronic energy       = 0
    Total energy                    = 9.874542901e-15

Stage 1.0  ExecutionTime = 2.13 s  ClockTime = 2 s  Iteration 985 (0.01 s)

Time = 9.86e-07

    Collisions                      = 0

    Number of DSMC particles        = 3999
    Number of stuck particles       = 1550
    Number of free particles        = 2449
    Average linear kinetic energy   = 4.040203138e-20
    Average rotational energy       = 0
    Average vibrational energy      = 0
    Average electronic energy       = 0
    Total energy                    = 9.894457485e-15

Stage 1.0  ExecutionTime = 2.13 s  ClockTime = 2 s  Iteration 986 (0.001 s)

Time = 9.87e-07

    No collisions
    Number of DSMC particles        = 3999
    Number of stuck particles       = 1551
    Number of free particles        = 2448
    Average linear kinetic energy   = 4.049846108e-20
    Average rotational energy       = 0
    Average vibrational energy      = 0
    Average electronic energy       = 0
    Total energy                    = 9.914023273e-15

Stage 1.0  ExecutionTime = 2.13 s  ClockTime = 2 s  Iteration 987 (0.001 s)

Time = 9.88e-07

    Collisions                      = 0

    Number of DSMC particles        = 3999
    Number of stuck particles       = 1553
    Number of free particles        = 2446
    Average linear kinetic energy   = 4.069237872e-20
    Average rotational energy       = 0
    Average vibrational energy      = 0
    Average electronic energy       = 0
    Total energy                    = 9.953355836e-15

Stage 1.0  ExecutionTime = 2.13 s  ClockTime = 2 s  Iteration 988 (0.001 s)

Time = 9.89e-07

    No collisions
    Number of DSMC particles        = 3999
    Number of stuck particles       = 1549
    Number of free particles        = 2450
    Average linear kinetic energy   = 4.072365613e-20
    Average rotational energy       = 0
    Average vibrational energy      = 0
    Average electronic energy       = 0
    Total energy                    = 9.977295752e-15

Stage 1.0  ExecutionTime = 2.13 s  ClockTime = 2 s  Iteration 989 (0.001 s)

Time = 9.9e-07

    Collisions                      = 1

    Number of DSMC particles        = 3999
    Number of stuck particles       = 1543
    Number of free particles        = 2456
    Average linear kinetic energy   = 4.097828737e-20
    Average rotational energy       = 0
    Average vibrational energy      = 0
    Average electronic energy       = 0
    Total energy                    = 1.006426738e-14

Stage 1.0  ExecutionTime = 2.14 s  ClockTime = 2 s  Iteration 990 (0.01 s)

Time = 9.91e-07

    No collisions
    Number of DSMC particles        = 3999
    Number of stuck particles       = 1549
    Number of free particles        = 2450
    Average linear kinetic energy   = 4.096969092e-20
    Average rotational energy       = 0
    Average vibrational energy      = 0
    Average electronic energy       = 0
    Total energy                    = 1.003757428e-14

Stage 1.0  ExecutionTime = 2.14 s  ClockTime = 2 s  Iteration 991 (0.001 s)

Time = 9.92e-07

    Collisions                      = 0

    Number of DSMC particles        = 3999
    Number of stuck particles       = 1552
    Number of free particles        = 2447
    Average linear kinetic energy   = 4.076998334e-20
    Average rotational energy       = 0
    Average vibrational energy      = 0
    Average electronic energy       = 0
    Total energy                    = 9.976414923e-15

Stage 1.0  ExecutionTime = 2.14 s  ClockTime = 2 s  Iteration 992 (0.001 s)

Time = 9.93e-07

    No collisions
    Number of DSMC particles        = 3999
    Number of stuck particles       = 1549
    Number of free particles        = 2450
    Average linear kinetic energy   = 4.074555233e-20
    Average rotational energy       = 0
    Average vibrational energy      = 0
    Average electronic energy       = 0
    Total energy                    = 9.982660321e-15

Stage 1.0  ExecutionTime = 2.14 s  ClockTime = 2 s  Iteration 993 (0.001 s)

Time = 9.94e-07

    Collisions                      = 0

    Number of DSMC particles        = 3999
    Number of stuck particles       = 1546
    Number of free particles        = 2453
    Average linear kinetic energy   = 4.077084197e-20
    Average rotational energy       = 0
    Average vibrational energy      = 0
    Average electronic energy       = 0
    Total energy                    = 1.000108754e-14

Stage 1.0  ExecutionTime = 2.14 s  ClockTime = 2 s  Iteration 994 (0.001 s)

Time = 9.95e-07

    No collisions
    Number of DSMC particles        = 3999
    Number of stuck particles       = 1529
    Number of free particles        = 2470
    Average linear kinetic energy   = 4.066529696e-20
    Average rotational energy       = 0
    Average vibrational energy      = 0
    Average electronic energy       = 0
    Total energy                    = 1.004432835e-14

Stage 1.0  ExecutionTime = 2.14 s  ClockTime = 2 s  Iteration 995 (0.001 s)

Time = 9.96e-07

    Collisions                      = 1

    Number of DSMC particles        = 3999
    Number of stuck particles       = 1532
    Number of free particles        = 2467
    Average linear kinetic energy   = 4.061767395e-20
    Average rotational energy       = 0
    Average vibrational energy      = 0
    Average electronic energy       = 0
    Total energy                    = 1.002038016e-14

Stage 1.0  ExecutionTime = 2.14 s  ClockTime = 2 s  Iteration 996 (0.001 s)

Time = 9.97e-07

    No collisions
    Number of DSMC particles        = 3999
    Number of stuck particles       = 1524
    Number of free particles        = 2475
    Average linear kinetic energy   = 4.044504167e-20
    Average rotational energy       = 0
    Average vibrational energy      = 0
    Average electronic energy       = 0
    Total energy                    = 1.001014781e-14

Stage 1.0  ExecutionTime = 2.14 s  ClockTime = 2 s  Iteration 997 (0.001 s)

Time = 9.98e-07

    Collisions                      = 1

    Number of DSMC particles        = 3999
    Number of stuck particles       = 1517
    Number of free particles        = 2482
    Average linear kinetic energy   = 4.042307028e-20
    Average rotational energy       = 0
    Average vibrational energy      = 0
    Average electronic energy       = 0
    Total energy                    = 1.003300604e-14

Stage 1.0  ExecutionTime = 2.14 s  ClockTime = 2 s  Iteration 998 (0.001 s)

Time = 9.99e-07

    No collisions
    Number of DSMC particles        = 3999
    Number of stuck particles       = 1510
    Number of free particles        = 2489
    Average linear kinetic energy   = 4.035079183e-20
    Average rotational energy       = 0
    Average vibrational energy      = 0
    Average electronic energy       = 0
    Total energy                    = 1.004331209e-14

Stage 1.0  ExecutionTime = 2.15 s  ClockTime = 2 s  Iteration 999 (0.01 s)

Time = 1e-06

    Collisions                      = 1

    Number of DSMC particles        = 3999
    Number of stuck particles       = 1500
    Number of free particles        = 2499
    Average linear kinetic energy   = 4.043089526e-20
    Average rotational energy       = 0
    Average vibrational energy      = 0
    Average electronic energy       = 0
    Total energy                    = 1.010368073e-14

Stage 1.0  ExecutionTime = 2.19 s  ClockTime = 2 s  Iteration 1000 (0.04 s)

End stage 1

Total Iterations = 1000
End main

