/*---------------------------------------------------------------------------*\
| =========                 |                                                 |
| \\      /  F ield         | OpenFOAM: The Open Source CFD Toolbox           |
|  \\    /   O peration     | Version:  v1706                                 |
|   \\  /    A nd           | Web:      www.OpenFOAM.com                      |
|    \\/     M anipulation  |                                                 |
\*---------------------------------------------------------------------------*/
Build  : v1706
Arch   : "LSB;label=32;scalar=64"
Exec   : dsmcFoam+
Date   : Jan 11 2019
Time   : 10:28:30
Host   : "Galileo"
PID    : 31949
Case   : /home/vincent/OpenFOAM/vincent-v1706/hyStrath/run/hyStrath/dsmcFoam+/gasSurfaceInteraction/absorbingPatchField
nProcs : 1
sigFpe : Enabling floating point exception trapping (FOAM_SIGFPE).
fileModificationChecking : Monitoring run-time modified files using timeStampMaster (fileModificationSkew 10)
allowSystemOperations : Allowing user-supplied system call operations

// * * * * * * * * * * * * * * * * * * * * * * * * * * * * * * * * * * * * * //
Create time

Create mesh for time = 0

Selecting dynamicFvMesh dynamicRefineFvMesh

Constructing dsmcCloud 
Selecting the coordinate system model:	dsmcCartesian

Selecting the time-step model:	dsmcConstantTimeStepModel

Constant time-step model:
- time-step [sec]	1e-09

Selecting the porous measurement model:	dsmcNoPorousMediumMeasurements


Creating dsmcControllers

Creating fields: 

Selecting field: dsmcVolFields

TimeData Statistics: 
 measurement option: write
 nSamples: 1, time interval: 1e-09
 nAverages: 1000, time interval: 1e-06
 total no. of sampling steps: 1000
 total no. of averaging Steps: 1


Creating the boundary models: 

Selecting dsmcPatchBoundaryModel dsmcSpecularWallPatch
Selecting dsmcPatchBoundaryModel dsmcStickingDiffuseWallPatch
Selecting BinaryCollisionModel VariableHardSphere

Creating dsmcReactions

WARNING: there are no reactions.

Constructing constant properties for
	Ar
pair addressing: 1(1(-1))
Selecting collisionPartnerSelectionModel noTimeCounter

Initialising the measurement fields

Initialising dsmcVolFields field

Starting time loop

Time = 1e-09

    Collisions                      = 20

    Number of DSMC particles        = 100001
    Number of stuck particles       = 1280
    Number of free particles        = 98721
    Average linear kinetic energy   = 4.265237956e-20
    Average rotational energy       = 0
    Average vibrational energy      = 0
    Average electronic energy       = 0
    Total energy                    = 4.210685563e-12

Stage 1.0  ExecutionTime = 0.51 s  ClockTime = 1 s  Iteration 1 (0.51 s)

Time = 2e-09

    Collisions                      = 21

    Number of DSMC particles        = 100001
    Number of stuck particles       = 2488
    Number of free particles        = 97513
    Average linear kinetic energy   = 4.401067422e-20
    Average rotational energy       = 0
    Average vibrational energy      = 0
    Average electronic energy       = 0
    Total energy                    = 4.291612876e-12

Stage 1.0  ExecutionTime = 0.57 s  ClockTime = 1 s  Iteration 2 (0.06 s)

Time = 3e-09

    Collisions                      = 21

    Number of DSMC particles        = 100001
    Number of stuck particles       = 3703
    Number of free particles        = 96298
    Average linear kinetic energy   = 4.544823896e-20
    Average rotational energy       = 0
    Average vibrational energy      = 0
    Average electronic energy       = 0
    Total energy                    = 4.376574516e-12

Stage 1.0  ExecutionTime = 0.63 s  ClockTime = 1 s  Iteration 3 (0.06 s)

Time = 4e-09

    Collisions                      = 19

    Number of DSMC particles        = 100001
    Number of stuck particles       = 4879
    Number of free particles        = 95122
    Average linear kinetic energy   = 4.691310747e-20
    Average rotational energy       = 0
    Average vibrational energy      = 0
    Average electronic energy       = 0
    Total energy                    = 4.462468608e-12

Stage 1.0  ExecutionTime = 0.7 s  ClockTime = 1 s  Iteration 4 (0.07 s)

Time = 5e-09

    Collisions                      = 23

    Number of DSMC particles        = 100001
    Number of stuck particles       = 6061
    Number of free particles        = 93940
    Average linear kinetic energy   = 4.844787065e-20
    Average rotational energy       = 0
    Average vibrational energy      = 0
    Average electronic energy       = 0
    Total energy                    = 4.551192969e-12

Stage 1.0  ExecutionTime = 0.76 s  ClockTime = 1 s  Iteration 5 (0.06 s)

Time = 6e-09

    Collisions                      = 11

    Number of DSMC particles        = 100001
    Number of stuck particles       = 7267
    Number of free particles        = 92734
    Average linear kinetic energy   = 5.010926794e-20
    Average rotational energy       = 0
    Average vibrational energy      = 0
    Average electronic energy       = 0
    Total energy                    = 4.646832854e-12

Stage 1.0  ExecutionTime = 0.82 s  ClockTime = 1 s  Iteration 6 (0.06 s)

Time = 7e-09

    Collisions                      = 18

    Number of DSMC particles        = 100001
    Number of stuck particles       = 8399
    Number of free particles        = 91602
    Average linear kinetic energy   = 5.141146364e-20
    Average rotational energy       = 0
    Average vibrational energy      = 0
    Average electronic energy       = 0
    Total energy                    = 4.709392892e-12

Stage 1.0  ExecutionTime = 0.88 s  ClockTime = 1 s  Iteration 7 (0.06 s)

Time = 8e-09

    Collisions                      = 25

    Number of DSMC particles        = 100001
    Number of stuck particles       = 9562
    Number of free particles        = 90439
    Average linear kinetic energy   = 5.294481881e-20
    Average rotational energy       = 0
    Average vibrational energy      = 0
    Average electronic energy       = 0
    Total energy                    = 4.788276468e-12

Stage 1.0  ExecutionTime = 0.94 s  ClockTime = 1 s  Iteration 8 (0.06 s)

Time = 9e-09

    Collisions                      = 18

    Number of DSMC particles        = 100001
    Number of stuck particles       = 10759
    Number of free particles        = 89242
    Average linear kinetic energy   = 5.431036113e-20
    Average rotational energy       = 0
    Average vibrational energy      = 0
    Average electronic energy       = 0
    Total energy                    = 4.846765248e-12

Stage 1.0  ExecutionTime = 1 s  ClockTime = 1 s  Iteration 9 (0.06 s)

Time = 1e-08

    Collisions                      = 23

    Number of DSMC particles        = 100001
    Number of stuck particles       = 11949
    Number of free particles        = 88052
    Average linear kinetic energy   = 5.579586367e-20
    Average rotational energy       = 0
    Average vibrational energy      = 0
    Average electronic energy       = 0
    Total energy                    = 4.912937388e-12

Stage 1.0  ExecutionTime = 1.06 s  ClockTime = 1 s  Iteration 10 (0.06 s)

Time = 1.1e-08

    Collisions                      = 23

    Number of DSMC particles        = 100001
    Number of stuck particles       = 13103
    Number of free particles        = 86898
    Average linear kinetic energy   = 5.734348177e-20
    Average rotational energy       = 0
    Average vibrational energy      = 0
    Average electronic energy       = 0
    Total energy                    = 4.983033879e-12

Stage 1.0  ExecutionTime = 1.13 s  ClockTime = 1 s  Iteration 11 (0.07 s)

Time = 1.2e-08

    Collisions                      = 23

    Number of DSMC particles        = 100001
    Number of stuck particles       = 14310
    Number of free particles        = 85691
    Average linear kinetic energy   = 5.859184868e-20
    Average rotational energy       = 0
    Average vibrational energy      = 0
    Average electronic energy       = 0
    Total energy                    = 5.020794105e-12

Stage 1.0  ExecutionTime = 1.19 s  ClockTime = 2 s  Iteration 12 (0.06 s)

Time = 1.3e-08

    Collisions                      = 19

    Number of DSMC particles        = 100001
    Number of stuck particles       = 15403
    Number of free particles        = 84598
    Average linear kinetic energy   = 6.002027243e-20
    Average rotational energy       = 0
    Average vibrational energy      = 0
    Average electronic energy       = 0
    Total energy                    = 5.077595007e-12

Stage 1.0  ExecutionTime = 1.25 s  ClockTime = 2 s  Iteration 13 (0.06 s)

Time = 1.4e-08

    Collisions                      = 23

    Number of DSMC particles        = 100001
    Number of stuck particles       = 16497
    Number of free particles        = 83504
    Average linear kinetic energy   = 6.130685604e-20
    Average rotational energy       = 0
    Average vibrational energy      = 0
    Average electronic energy       = 0
    Total energy                    = 5.119367706e-12

Stage 1.0  ExecutionTime = 1.31 s  ClockTime = 2 s  Iteration 14 (0.06 s)

Time = 1.5e-08

    Collisions                      = 20

    Number of DSMC particles        = 100001
    Number of stuck particles       = 17633
    Number of free particles        = 82368
    Average linear kinetic energy   = 6.253501404e-20
    Average rotational energy       = 0
    Average vibrational energy      = 0
    Average electronic energy       = 0
    Total energy                    = 5.150884037e-12

Stage 1.0  ExecutionTime = 1.37 s  ClockTime = 2 s  Iteration 15 (0.06 s)

Time = 1.6e-08

    Collisions                      = 26

    Number of DSMC particles        = 100001
    Number of stuck particles       = 18669
    Number of free particles        = 81332
    Average linear kinetic energy   = 6.364234901e-20
    Average rotational energy       = 0
    Average vibrational energy      = 0
    Average electronic energy       = 0
    Total energy                    = 5.17615953e-12

Stage 1.0  ExecutionTime = 1.44 s  ClockTime = 2 s  Iteration 16 (0.07 s)

Time = 1.7e-08

    Collisions                      = 18

    Number of DSMC particles        = 100001
    Number of stuck particles       = 19810
    Number of free particles        = 80191
    Average linear kinetic energy   = 6.505291587e-20
    Average rotational energy       = 0
    Average vibrational energy      = 0
    Average electronic energy       = 0
    Total energy                    = 5.216658377e-12

Stage 1.0  ExecutionTime = 1.5 s  ClockTime = 2 s  Iteration 17 (0.06 s)

Time = 1.8e-08

    Collisions                      = 15

    Number of DSMC particles        = 100001
    Number of stuck particles       = 20834
    Number of free particles        = 79167
    Average linear kinetic energy   = 6.639986831e-20
    Average rotational energy       = 0
    Average vibrational energy      = 0
    Average electronic energy       = 0
    Total energy                    = 5.256678375e-12

Stage 1.0  ExecutionTime = 1.57 s  ClockTime = 2 s  Iteration 18 (0.07 s)

Time = 1.9e-08

    Collisions                      = 25

    Number of DSMC particles        = 100001
    Number of stuck particles       = 21732
    Number of free particles        = 78269
    Average linear kinetic energy   = 6.758859315e-20
    Average rotational energy       = 0
    Average vibrational energy      = 0
    Average electronic energy       = 0
    Total energy                    = 5.290091597e-12

Stage 1.0  ExecutionTime = 1.63 s  ClockTime = 2 s  Iteration 19 (0.06 s)

Time = 2e-08

    Collisions                      = 16

    Number of DSMC particles        = 100001
    Number of stuck particles       = 22645
    Number of free particles        = 77356
    Average linear kinetic energy   = 6.891726768e-20
    Average rotational energy       = 0
    Average vibrational energy      = 0
    Average electronic energy       = 0
    Total energy                    = 5.331164158e-12

Stage 1.0  ExecutionTime = 1.69 s  ClockTime = 2 s  Iteration 20 (0.06 s)

Time = 2.1e-08

    Collisions                      = 16

    Number of DSMC particles        = 100001
    Number of stuck particles       = 23511
    Number of free particles        = 76490
    Average linear kinetic energy   = 6.98219919e-20
    Average rotational energy       = 0
    Average vibrational energy      = 0
    Average electronic energy       = 0
    Total energy                    = 5.34068416e-12

Stage 1.0  ExecutionTime = 1.76 s  ClockTime = 2 s  Iteration 21 (0.07 s)

Time = 2.2e-08

    Collisions                      = 21

    Number of DSMC particles        = 100001
    Number of stuck particles       = 24442
    Number of free particles        = 75559
    Average linear kinetic energy   = 7.084715015e-20
    Average rotational energy       = 0
    Average vibrational energy      = 0
    Average electronic energy       = 0
    Total energy                    = 5.353139818e-12

Stage 1.0  ExecutionTime = 1.82 s  ClockTime = 2 s  Iteration 22 (0.06 s)

Time = 2.3e-08

    Collisions                      = 18

    Number of DSMC particles        = 100001
    Number of stuck particles       = 25308
    Number of free particles        = 74693
    Average linear kinetic energy   = 7.164549036e-20
    Average rotational energy       = 0
    Average vibrational energy      = 0
    Average electronic energy       = 0
    Total energy                    = 5.351416612e-12

Stage 1.0  ExecutionTime = 1.88 s  ClockTime = 2 s  Iteration 23 (0.06 s)

Time = 2.4e-08

    Collisions                      = 17

    Number of DSMC particles        = 100001
    Number of stuck particles       = 26052
    Number of free particles        = 73949
    Average linear kinetic energy   = 7.269433013e-20
    Average rotational energy       = 0
    Average vibrational energy      = 0
    Average electronic energy       = 0
    Total energy                    = 5.375673019e-12

Stage 1.0  ExecutionTime = 1.95 s  ClockTime = 2 s  Iteration 24 (0.07 s)

Time = 2.5e-08

    Collisions                      = 17

    Number of DSMC particles        = 100001
    Number of stuck particles       = 26819
    Number of free particles        = 73182
    Average linear kinetic energy   = 7.362480728e-20
    Average rotational energy       = 0
    Average vibrational energy      = 0
    Average electronic energy       = 0
    Total energy                    = 5.388010646e-12

Stage 1.0  ExecutionTime = 2.01 s  ClockTime = 2 s  Iteration 25 (0.06 s)

Time = 2.6e-08

    Collisions                      = 25

    Number of DSMC particles        = 100001
    Number of stuck particles       = 27489
    Number of free particles        = 72512
    Average linear kinetic energy   = 7.422408272e-20
    Average rotational energy       = 0
    Average vibrational energy      = 0
    Average electronic energy       = 0
    Total energy                    = 5.382136686e-12

Stage 1.0  ExecutionTime = 2.08 s  ClockTime = 2 s  Iteration 26 (0.07 s)

Time = 2.7e-08

    Collisions                      = 16

    Number of DSMC particles        = 100001
    Number of stuck particles       = 28189
    Number of free particles        = 71812
    Average linear kinetic energy   = 7.485789907e-20
    Average rotational energy       = 0
    Average vibrational energy      = 0
    Average electronic energy       = 0
    Total energy                    = 5.375695448e-12

Stage 1.0  ExecutionTime = 2.14 s  ClockTime = 2 s  Iteration 27 (0.06 s)

Time = 2.8e-08

    Collisions                      = 16

    Number of DSMC particles        = 100001
    Number of stuck particles       = 28891
    Number of free particles        = 71110
    Average linear kinetic energy   = 7.564048889e-20
    Average rotational energy       = 0
    Average vibrational energy      = 0
    Average electronic energy       = 0
    Total energy                    = 5.378795165e-12

Stage 1.0  ExecutionTime = 2.2 s  ClockTime = 3 s  Iteration 28 (0.06 s)

Time = 2.9e-08

    Collisions                      = 22

    Number of DSMC particles        = 100001
    Number of stuck particles       = 29475
    Number of free particles        = 70526
    Average linear kinetic energy   = 7.624710391e-20
    Average rotational energy       = 0
    Average vibrational energy      = 0
    Average electronic energy       = 0
    Total energy                    = 5.37740325e-12

Stage 1.0  ExecutionTime = 2.27 s  ClockTime = 3 s  Iteration 29 (0.07 s)

Time = 3e-08

    Collisions                      = 14

    Number of DSMC particles        = 100001
    Number of stuck particles       = 30179
    Number of free particles        = 69822
    Average linear kinetic energy   = 7.674117513e-20
    Average rotational energy       = 0
    Average vibrational energy      = 0
    Average electronic energy       = 0
    Total energy                    = 5.35822233e-12

Stage 1.0  ExecutionTime = 2.33 s  ClockTime = 3 s  Iteration 30 (0.06 s)

Time = 3.1e-08

    Collisions                      = 17

    Number of DSMC particles        = 100001
    Number of stuck particles       = 30749
    Number of free particles        = 69252
    Average linear kinetic energy   = 7.774694743e-20
    Average rotational energy       = 0
    Average vibrational energy      = 0
    Average electronic energy       = 0
    Total energy                    = 5.384131603e-12

Stage 1.0  ExecutionTime = 2.4 s  ClockTime = 3 s  Iteration 31 (0.07 s)

Time = 3.2e-08

    Collisions                      = 18

    Number of DSMC particles        = 100001
    Number of stuck particles       = 31396
    Number of free particles        = 68605
    Average linear kinetic energy   = 7.845223165e-20
    Average rotational energy       = 0
    Average vibrational energy      = 0
    Average electronic energy       = 0
    Total energy                    = 5.382215352e-12

Stage 1.0  ExecutionTime = 2.46 s  ClockTime = 3 s  Iteration 32 (0.06 s)

Time = 3.3e-08

    Collisions                      = 26

    Number of DSMC particles        = 100001
    Number of stuck particles       = 31963
    Number of free particles        = 68038
    Average linear kinetic energy   = 7.919233931e-20
    Average rotational energy       = 0
    Average vibrational energy      = 0
    Average electronic energy       = 0
    Total energy                    = 5.388088382e-12

Stage 1.0  ExecutionTime = 2.53 s  ClockTime = 3 s  Iteration 33 (0.07 s)

Time = 3.4e-08

    Collisions                      = 16

    Number of DSMC particles        = 100001
    Number of stuck particles       = 32452
    Number of free particles        = 67549
    Average linear kinetic energy   = 8.021180205e-20
    Average rotational energy       = 0
    Average vibrational energy      = 0
    Average electronic energy       = 0
    Total energy                    = 5.418227017e-12

Stage 1.0  ExecutionTime = 2.59 s  ClockTime = 3 s  Iteration 34 (0.06 s)

Time = 3.5e-08

    Collisions                      = 18

    Number of DSMC particles        = 100001
    Number of stuck particles       = 32966
    Number of free particles        = 67035
    Average linear kinetic energy   = 8.080694478e-20
    Average rotational energy       = 0
    Average vibrational energy      = 0
    Average electronic energy       = 0
    Total energy                    = 5.416893543e-12

Stage 1.0  ExecutionTime = 2.66 s  ClockTime = 3 s  Iteration 35 (0.07 s)

Time = 3.6e-08

    Collisions                      = 24

    Number of DSMC particles        = 100001
    Number of stuck particles       = 33521
    Number of free particles        = 66480
    Average linear kinetic energy   = 8.13759742e-20
    Average rotational energy       = 0
    Average vibrational energy      = 0
    Average electronic energy       = 0
    Total energy                    = 5.409874765e-12

Stage 1.0  ExecutionTime = 2.72 s  ClockTime = 3 s  Iteration 36 (0.06 s)

Time = 3.7e-08

    Collisions                      = 16

    Number of DSMC particles        = 100001
    Number of stuck particles       = 33935
    Number of free particles        = 66066
    Average linear kinetic energy   = 8.204733557e-20
    Average rotational energy       = 0
    Average vibrational energy      = 0
    Average electronic energy       = 0
    Total energy                    = 5.420539271e-12

Stage 1.0  ExecutionTime = 2.78 s  ClockTime = 3 s  Iteration 37 (0.06 s)

Time = 3.8e-08

    Collisions                      = 13

    Number of DSMC particles        = 100001
    Number of stuck particles       = 34388
    Number of free particles        = 65613
    Average linear kinetic energy   = 8.27326872e-20
    Average rotational energy       = 0
    Average vibrational energy      = 0
    Average electronic energy       = 0
    Total energy                    = 5.428339805e-12

Stage 1.0  ExecutionTime = 2.85 s  ClockTime = 3 s  Iteration 38 (0.07 s)

Time = 3.9e-08

    Collisions                      = 25

    Number of DSMC particles        = 100001
    Number of stuck particles       = 34880
    Number of free particles        = 65121
    Average linear kinetic energy   = 8.338446065e-20
    Average rotational energy       = 0
    Average vibrational energy      = 0
    Average electronic energy       = 0
    Total energy                    = 5.430079462e-12

Stage 1.0  ExecutionTime = 2.91 s  ClockTime = 3 s  Iteration 39 (0.06 s)

Time = 4e-08

    Collisions                      = 11

    Number of DSMC particles        = 100001
    Number of stuck particles       = 35358
    Number of free particles        = 64643
    Average linear kinetic energy   = 8.38571394e-20
    Average rotational energy       = 0
    Average vibrational energy      = 0
    Average electronic energy       = 0
    Total energy                    = 5.420777062e-12

Stage 1.0  ExecutionTime = 2.98 s  ClockTime = 3 s  Iteration 40 (0.07 s)

Time = 4.1e-08

    Collisions                      = 16

    Number of DSMC particles        = 100001
    Number of stuck particles       = 35807
    Number of free particles        = 64194
    Average linear kinetic energy   = 8.415523999e-20
    Average rotational energy       = 0
    Average vibrational energy      = 0
    Average electronic energy       = 0
    Total energy                    = 5.402261476e-12

Stage 1.0  ExecutionTime = 3.05 s  ClockTime = 3 s  Iteration 41 (0.07 s)

Time = 4.2e-08

    Collisions                      = 16

    Number of DSMC particles        = 100001
    Number of stuck particles       = 36209
    Number of free particles        = 63792
    Average linear kinetic energy   = 8.488293756e-20
    Average rotational energy       = 0
    Average vibrational energy      = 0
    Average electronic energy       = 0
    Total energy                    = 5.414852353e-12

Stage 1.0  ExecutionTime = 3.11 s  ClockTime = 3 s  Iteration 42 (0.06 s)

Time = 4.3e-08

    Collisions                      = 25

    Number of DSMC particles        = 100001
    Number of stuck particles       = 36622
    Number of free particles        = 63379
    Average linear kinetic energy   = 8.535507027e-20
    Average rotational energy       = 0
    Average vibrational energy      = 0
    Average electronic energy       = 0
    Total energy                    = 5.409718998e-12

Stage 1.0  ExecutionTime = 3.18 s  ClockTime = 3 s  Iteration 43 (0.07 s)

Time = 4.4e-08

    Collisions                      = 13

    Number of DSMC particles        = 100001
    Number of stuck particles       = 36933
    Number of free particles        = 63068
    Average linear kinetic energy   = 8.574531493e-20
    Average rotational energy       = 0
    Average vibrational energy      = 0
    Average electronic energy       = 0
    Total energy                    = 5.407785522e-12

Stage 1.0  ExecutionTime = 3.24 s  ClockTime = 4 s  Iteration 44 (0.06 s)

Time = 4.5e-08

    Collisions                      = 20

    Number of DSMC particles        = 100001
    Number of stuck particles       = 37264
    Number of free particles        = 62737
    Average linear kinetic energy   = 8.615254812e-20
    Average rotational energy       = 0
    Average vibrational energy      = 0
    Average electronic energy       = 0
    Total energy                    = 5.404952411e-12

Stage 1.0  ExecutionTime = 3.31 s  ClockTime = 4 s  Iteration 45 (0.07 s)

Time = 4.6e-08

    Collisions                      = 17

    Number of DSMC particles        = 100001
    Number of stuck particles       = 37543
    Number of free particles        = 62458
    Average linear kinetic energy   = 8.636188131e-20
    Average rotational energy       = 0
    Average vibrational energy      = 0
    Average electronic energy       = 0
    Total energy                    = 5.393990383e-12

Stage 1.0  ExecutionTime = 3.37 s  ClockTime = 4 s  Iteration 46 (0.06 s)

Time = 4.7e-08

    Collisions                      = 21

    Number of DSMC particles        = 100001
    Number of stuck particles       = 37924
    Number of free particles        = 62077
    Average linear kinetic energy   = 8.706456018e-20
    Average rotational energy       = 0
    Average vibrational energy      = 0
    Average electronic energy       = 0
    Total energy                    = 5.404706702e-12

Stage 1.0  ExecutionTime = 3.45 s  ClockTime = 4 s  Iteration 47 (0.08 s)

Time = 4.8e-08

    Collisions                      = 19

    Number of DSMC particles        = 100001
    Number of stuck particles       = 38117
    Number of free particles        = 61884
    Average linear kinetic energy   = 8.76561582e-20
    Average rotational energy       = 0
    Average vibrational energy      = 0
    Average electronic energy       = 0
    Total energy                    = 5.424513694e-12

Stage 1.0  ExecutionTime = 3.52 s  ClockTime = 4 s  Iteration 48 (0.07 s)

Time = 4.9e-08

    Collisions                      = 20

    Number of DSMC particles        = 100001
    Number of stuck particles       = 38401
    Number of free particles        = 61600
    Average linear kinetic energy   = 8.798468339e-20
    Average rotational energy       = 0
    Average vibrational energy      = 0
    Average electronic energy       = 0
    Total energy                    = 5.419856497e-12

Stage 1.0  ExecutionTime = 3.58 s  ClockTime = 4 s  Iteration 49 (0.06 s)

Time = 5e-08

    Collisions                      = 21

    Number of DSMC particles        = 100001
    Number of stuck particles       = 38705
    Number of free particles        = 61296
    Average linear kinetic energy   = 8.835157104e-20
    Average rotational energy       = 0
    Average vibrational energy      = 0
    Average electronic energy       = 0
    Total energy                    = 5.415597898e-12

Stage 1.0  ExecutionTime = 3.64 s  ClockTime = 4 s  Iteration 50 (0.06 s)

Time = 5.1e-08

    Collisions                      = 10

    Number of DSMC particles        = 100001
    Number of stuck particles       = 38975
    Number of free particles        = 61026
    Average linear kinetic energy   = 8.857591783e-20
    Average rotational energy       = 0
    Average vibrational energy      = 0
    Average electronic energy       = 0
    Total energy                    = 5.405433962e-12

Stage 1.0  ExecutionTime = 3.71 s  ClockTime = 4 s  Iteration 51 (0.07 s)

Time = 5.2e-08

    Collisions                      = 17

    Number of DSMC particles        = 100001
    Number of stuck particles       = 39244
    Number of free particles        = 60757
    Average linear kinetic energy   = 8.856111225e-20
    Average rotational energy       = 0
    Average vibrational energy      = 0
    Average electronic energy       = 0
    Total energy                    = 5.380707497e-12

Stage 1.0  ExecutionTime = 3.77 s  ClockTime = 4 s  Iteration 52 (0.06 s)

Time = 5.3e-08

    Collisions                      = 19

    Number of DSMC particles        = 100001
    Number of stuck particles       = 39503
    Number of free particles        = 60498
    Average linear kinetic energy   = 8.893213771e-20
    Average rotational energy       = 0
    Average vibrational energy      = 0
    Average electronic energy       = 0
    Total energy                    = 5.380216467e-12

Stage 1.0  ExecutionTime = 3.83 s  ClockTime = 4 s  Iteration 53 (0.06 s)

Time = 5.4e-08

    Collisions                      = 17

    Number of DSMC particles        = 100001
    Number of stuck particles       = 39763
    Number of free particles        = 60238
    Average linear kinetic energy   = 8.91103914e-20
    Average rotational energy       = 0
    Average vibrational energy      = 0
    Average electronic energy       = 0
    Total energy                    = 5.367831757e-12

Stage 1.0  ExecutionTime = 3.89 s  ClockTime = 4 s  Iteration 54 (0.06 s)

Time = 5.5e-08

    Collisions                      = 14

    Number of DSMC particles        = 100001
    Number of stuck particles       = 40039
    Number of free particles        = 59962
    Average linear kinetic energy   = 8.947321804e-20
    Average rotational energy       = 0
    Average vibrational energy      = 0
    Average electronic energy       = 0
    Total energy                    = 5.3649931e-12

Stage 1.0  ExecutionTime = 3.96 s  ClockTime = 4 s  Iteration 55 (0.07 s)

Time = 5.6e-08

    Collisions                      = 25

    Number of DSMC particles        = 100001
    Number of stuck particles       = 40283
    Number of free particles        = 59718
    Average linear kinetic energy   = 8.969865359e-20
    Average rotational energy       = 0
    Average vibrational energy      = 0
    Average electronic energy       = 0
    Total energy                    = 5.356624195e-12

Stage 1.0  ExecutionTime = 4.02 s  ClockTime = 4 s  Iteration 56 (0.06 s)

Time = 5.7e-08

    Collisions                      = 22

    Number of DSMC particles        = 100001
    Number of stuck particles       = 40604
    Number of free particles        = 59397
    Average linear kinetic energy   = 8.998433442e-20
    Average rotational energy       = 0
    Average vibrational energy      = 0
    Average electronic energy       = 0
    Total energy                    = 5.344799512e-12

Stage 1.0  ExecutionTime = 4.08 s  ClockTime = 4 s  Iteration 57 (0.06 s)

Time = 5.8e-08

    Collisions                      = 16

    Number of DSMC particles        = 100001
    Number of stuck particles       = 40729
    Number of free particles        = 59272
    Average linear kinetic energy   = 9.062617448e-20
    Average rotational energy       = 0
    Average vibrational energy      = 0
    Average electronic energy       = 0
    Total energy                    = 5.371594614e-12

Stage 1.0  ExecutionTime = 4.15 s  ClockTime = 4 s  Iteration 58 (0.07 s)

Time = 5.9e-08

    Collisions                      = 11

    Number of DSMC particles        = 100001
    Number of stuck particles       = 40941
    Number of free particles        = 59060
    Average linear kinetic energy   = 9.100450334e-20
    Average rotational energy       = 0
    Average vibrational energy      = 0
    Average electronic energy       = 0
    Total energy                    = 5.374725968e-12

Stage 1.0  ExecutionTime = 4.21 s  ClockTime = 5 s  Iteration 59 (0.06 s)

Time = 6e-08

    Collisions                      = 24

    Number of DSMC particles        = 100001
    Number of stuck particles       = 41123
    Number of free particles        = 58878
    Average linear kinetic energy   = 9.133747624e-20
    Average rotational energy       = 0
    Average vibrational energy      = 0
    Average electronic energy       = 0
    Total energy                    = 5.377767926e-12

Stage 1.0  ExecutionTime = 4.28 s  ClockTime = 5 s  Iteration 60 (0.07 s)

Time = 6.1e-08

    Collisions                      = 16

    Number of DSMC particles        = 100001
    Number of stuck particles       = 41277
    Number of free particles        = 58724
    Average linear kinetic energy   = 9.160419087e-20
    Average rotational energy       = 0
    Average vibrational energy      = 0
    Average electronic energy       = 0
    Total energy                    = 5.379364504e-12

Stage 1.0  ExecutionTime = 4.34 s  ClockTime = 5 s  Iteration 61 (0.06 s)

Time = 6.2e-08

    Collisions                      = 13

    Number of DSMC particles        = 100001
    Number of stuck particles       = 41499
    Number of free particles        = 58502
    Average linear kinetic energy   = 9.194678021e-20
    Average rotational energy       = 0
    Average vibrational energy      = 0
    Average electronic energy       = 0
    Total energy                    = 5.379070536e-12

Stage 1.0  ExecutionTime = 4.41 s  ClockTime = 5 s  Iteration 62 (0.07 s)

Time = 6.3e-08

    Collisions                      = 24

    Number of DSMC particles        = 100001
    Number of stuck particles       = 41702
    Number of free particles        = 58299
    Average linear kinetic energy   = 9.196717861e-20
    Average rotational energy       = 0
    Average vibrational energy      = 0
    Average electronic energy       = 0
    Total energy                    = 5.361594546e-12

Stage 1.0  ExecutionTime = 4.47 s  ClockTime = 5 s  Iteration 63 (0.06 s)

Time = 6.4e-08

    Collisions                      = 12

    Number of DSMC particles        = 100001
    Number of stuck particles       = 41876
    Number of free particles        = 58125
    Average linear kinetic energy   = 9.223050282e-20
    Average rotational energy       = 0
    Average vibrational energy      = 0
    Average electronic energy       = 0
    Total energy                    = 5.360897976e-12

Stage 1.0  ExecutionTime = 4.54 s  ClockTime = 5 s  Iteration 64 (0.07 s)

Time = 6.5e-08

    Collisions                      = 18

    Number of DSMC particles        = 100001
    Number of stuck particles       = 42130
    Number of free particles        = 57871
    Average linear kinetic energy   = 9.26659237e-20
    Average rotational energy       = 0
    Average vibrational energy      = 0
    Average electronic energy       = 0
    Total energy                    = 5.36266967e-12

Stage 1.0  ExecutionTime = 4.6 s  ClockTime = 5 s  Iteration 65 (0.06 s)

Time = 6.6e-08

    Collisions                      = 19

    Number of DSMC particles        = 100001
    Number of stuck particles       = 42317
    Number of free particles        = 57684
    Average linear kinetic energy   = 9.282084882e-20
    Average rotational energy       = 0
    Average vibrational energy      = 0
    Average electronic energy       = 0
    Total energy                    = 5.354277844e-12

Stage 1.0  ExecutionTime = 4.67 s  ClockTime = 5 s  Iteration 66 (0.07 s)

Time = 6.7e-08

    Collisions                      = 19

    Number of DSMC particles        = 100001
    Number of stuck particles       = 42481
    Number of free particles        = 57520
    Average linear kinetic energy   = 9.334545296e-20
    Average rotational energy       = 0
    Average vibrational energy      = 0
    Average electronic energy       = 0
    Total energy                    = 5.369230454e-12

Stage 1.0  ExecutionTime = 4.73 s  ClockTime = 5 s  Iteration 67 (0.06 s)

Time = 6.8e-08

    Collisions                      = 7

    Number of DSMC particles        = 100001
    Number of stuck particles       = 42628
    Number of free particles        = 57373
    Average linear kinetic energy   = 9.357724627e-20
    Average rotational energy       = 0
    Average vibrational energy      = 0
    Average electronic energy       = 0
    Total energy                    = 5.36880735e-12

Stage 1.0  ExecutionTime = 4.8 s  ClockTime = 5 s  Iteration 68 (0.07 s)

Time = 6.9e-08

    Collisions                      = 16

    Number of DSMC particles        = 100001
    Number of stuck particles       = 42762
    Number of free particles        = 57239
    Average linear kinetic energy   = 9.365261279e-20
    Average rotational energy       = 0
    Average vibrational energy      = 0
    Average electronic energy       = 0
    Total energy                    = 5.360581904e-12

Stage 1.0  ExecutionTime = 4.86 s  ClockTime = 5 s  Iteration 69 (0.06 s)

Time = 7e-08

    Collisions                      = 19

    Number of DSMC particles        = 100001
    Number of stuck particles       = 42921
    Number of free particles        = 57080
    Average linear kinetic energy   = 9.389728857e-20
    Average rotational energy       = 0
    Average vibrational energy      = 0
    Average electronic energy       = 0
    Total energy                    = 5.359657232e-12

Stage 1.0  ExecutionTime = 4.92 s  ClockTime = 5 s  Iteration 70 (0.06 s)

Time = 7.1e-08

    Collisions                      = 19

    Number of DSMC particles        = 100001
    Number of stuck particles       = 43004
    Number of free particles        = 56997
    Average linear kinetic energy   = 9.40414182e-20
    Average rotational energy       = 0
    Average vibrational energy      = 0
    Average electronic energy       = 0
    Total energy                    = 5.360078713e-12

Stage 1.0  ExecutionTime = 4.99 s  ClockTime = 5 s  Iteration 71 (0.07 s)

Time = 7.2e-08

    Collisions                      = 13

    Number of DSMC particles        = 100001
    Number of stuck particles       = 43153
    Number of free particles        = 56848
    Average linear kinetic energy   = 9.425629327e-20
    Average rotational energy       = 0
    Average vibrational energy      = 0
    Average electronic energy       = 0
    Total energy                    = 5.35828176e-12

Stage 1.0  ExecutionTime = 5.05 s  ClockTime = 5 s  Iteration 72 (0.06 s)

Time = 7.3e-08

    Collisions                      = 19

    Number of DSMC particles        = 100001
    Number of stuck particles       = 43328
    Number of free particles        = 56673
    Average linear kinetic energy   = 9.453716987e-20
    Average rotational energy       = 0
    Average vibrational energy      = 0
    Average electronic energy       = 0
    Total energy                    = 5.357705028e-12

Stage 1.0  ExecutionTime = 5.11 s  ClockTime = 5 s  Iteration 73 (0.06 s)

Time = 7.4e-08

    Collisions                      = 13

    Number of DSMC particles        = 100001
    Number of stuck particles       = 43461
    Number of free particles        = 56540
    Average linear kinetic energy   = 9.472209208e-20
    Average rotational energy       = 0
    Average vibrational energy      = 0
    Average electronic energy       = 0
    Total energy                    = 5.355587086e-12

Stage 1.0  ExecutionTime = 5.18 s  ClockTime = 6 s  Iteration 74 (0.07 s)

Time = 7.5e-08

    Collisions                      = 19

    Number of DSMC particles        = 100001
    Number of stuck particles       = 43553
    Number of free particles        = 56448
    Average linear kinetic energy   = 9.495058651e-20
    Average rotational energy       = 0
    Average vibrational energy      = 0
    Average electronic energy       = 0
    Total energy                    = 5.359770707e-12

Stage 1.0  ExecutionTime = 5.24 s  ClockTime = 6 s  Iteration 75 (0.06 s)

Time = 7.6e-08

    Collisions                      = 18

    Number of DSMC particles        = 100001
    Number of stuck particles       = 43722
    Number of free particles        = 56279
    Average linear kinetic energy   = 9.491012781e-20
    Average rotational energy       = 0
    Average vibrational energy      = 0
    Average electronic energy       = 0
    Total energy                    = 5.341447083e-12

Stage 1.0  ExecutionTime = 5.3 s  ClockTime = 6 s  Iteration 76 (0.06 s)

Time = 7.7e-08

    Collisions                      = 14

    Number of DSMC particles        = 100001
    Number of stuck particles       = 43872
    Number of free particles        = 56129
    Average linear kinetic energy   = 9.516594222e-20
    Average rotational energy       = 0
    Average vibrational energy      = 0
    Average electronic energy       = 0
    Total energy                    = 5.341569171e-12

Stage 1.0  ExecutionTime = 5.37 s  ClockTime = 6 s  Iteration 77 (0.07 s)

Time = 7.8e-08

    Collisions                      = 17

    Number of DSMC particles        = 100001
    Number of stuck particles       = 43968
    Number of free particles        = 56033
    Average linear kinetic energy   = 9.530770588e-20
    Average rotational energy       = 0
    Average vibrational energy      = 0
    Average electronic energy       = 0
    Total energy                    = 5.340376684e-12

Stage 1.0  ExecutionTime = 5.43 s  ClockTime = 6 s  Iteration 78 (0.06 s)

Time = 7.9e-08

    Collisions                      = 18

    Number of DSMC particles        = 100001
    Number of stuck particles       = 44125
    Number of free particles        = 55876
    Average linear kinetic energy   = 9.537515573e-20
    Average rotational energy       = 0
    Average vibrational energy      = 0
    Average electronic energy       = 0
    Total energy                    = 5.329182201e-12

Stage 1.0  ExecutionTime = 5.5 s  ClockTime = 6 s  Iteration 79 (0.07 s)

Time = 8e-08

    Collisions                      = 20

    Number of DSMC particles        = 100001
    Number of stuck particles       = 44259
    Number of free particles        = 55742
    Average linear kinetic energy   = 9.567928113e-20
    Average rotational energy       = 0
    Average vibrational energy      = 0
    Average electronic energy       = 0
    Total energy                    = 5.333354489e-12

Stage 1.0  ExecutionTime = 5.56 s  ClockTime = 6 s  Iteration 80 (0.06 s)

Time = 8.1e-08

    Collisions                      = 18

    Number of DSMC particles        = 100001
    Number of stuck particles       = 44367
    Number of free particles        = 55634
    Average linear kinetic energy   = 9.611980483e-20
    Average rotational energy       = 0
    Average vibrational energy      = 0
    Average electronic energy       = 0
    Total energy                    = 5.347529222e-12

Stage 1.0  ExecutionTime = 5.63 s  ClockTime = 6 s  Iteration 81 (0.07 s)

Time = 8.2e-08

    Collisions                      = 11

    Number of DSMC particles        = 100001
    Number of stuck particles       = 44466
    Number of free particles        = 55535
    Average linear kinetic energy   = 9.621409432e-20
    Average rotational energy       = 0
    Average vibrational energy      = 0
    Average electronic energy       = 0
    Total energy                    = 5.343249728e-12

Stage 1.0  ExecutionTime = 5.69 s  ClockTime = 6 s  Iteration 82 (0.06 s)

Time = 8.3e-08

    Collisions                      = 22

    Number of DSMC particles        = 100001
    Number of stuck particles       = 44559
    Number of free particles        = 55442
    Average linear kinetic energy   = 9.641709964e-20
    Average rotational energy       = 0
    Average vibrational energy      = 0
    Average electronic energy       = 0
    Total energy                    = 5.345556838e-12

Stage 1.0  ExecutionTime = 5.75 s  ClockTime = 6 s  Iteration 83 (0.06 s)

Time = 8.4e-08

    Collisions                      = 16

    Number of DSMC particles        = 100001
    Number of stuck particles       = 44604
    Number of free particles        = 55397
    Average linear kinetic energy   = 9.695143297e-20
    Average rotational energy       = 0
    Average vibrational energy      = 0
    Average electronic energy       = 0
    Total energy                    = 5.370818532e-12

Stage 1.0  ExecutionTime = 5.82 s  ClockTime = 6 s  Iteration 84 (0.07 s)

Time = 8.5e-08

    Collisions                      = 15

    Number of DSMC particles        = 100001
    Number of stuck particles       = 44683
    Number of free particles        = 55318
    Average linear kinetic energy   = 9.705141659e-20
    Average rotational energy       = 0
    Average vibrational energy      = 0
    Average electronic energy       = 0
    Total energy                    = 5.368690263e-12

Stage 1.0  ExecutionTime = 5.88 s  ClockTime = 6 s  Iteration 85 (0.06 s)

Time = 8.6e-08

    Collisions                      = 21

    Number of DSMC particles        = 100001
    Number of stuck particles       = 44685
    Number of free particles        = 55316
    Average linear kinetic energy   = 9.733569992e-20
    Average rotational energy       = 0
    Average vibrational energy      = 0
    Average electronic energy       = 0
    Total energy                    = 5.384221577e-12

Stage 1.0  ExecutionTime = 5.95 s  ClockTime = 6 s  Iteration 86 (0.07 s)

Time = 8.7e-08

    Collisions                      = 18

    Number of DSMC particles        = 100001
    Number of stuck particles       = 44799
    Number of free particles        = 55202
    Average linear kinetic energy   = 9.737372415e-20
    Average rotational energy       = 0
    Average vibrational energy      = 0
    Average electronic energy       = 0
    Total energy                    = 5.375224321e-12

Stage 1.0  ExecutionTime = 6.01 s  ClockTime = 6 s  Iteration 87 (0.06 s)

Time = 8.8e-08

    Collisions                      = 17

    Number of DSMC particles        = 100001
    Number of stuck particles       = 44824
    Number of free particles        = 55177
    Average linear kinetic energy   = 9.783726825e-20
    Average rotational energy       = 0
    Average vibrational energy      = 0
    Average electronic energy       = 0
    Total energy                    = 5.39836695e-12

Stage 1.0  ExecutionTime = 6.08 s  ClockTime = 6 s  Iteration 88 (0.07 s)

Time = 8.9e-08

    Collisions                      = 15

    Number of DSMC particles        = 100001
    Number of stuck particles       = 44871
    Number of free particles        = 55130
    Average linear kinetic energy   = 9.825216245e-20
    Average rotational energy       = 0
    Average vibrational energy      = 0
    Average electronic energy       = 0
    Total energy                    = 5.416641716e-12

Stage 1.0  ExecutionTime = 6.14 s  ClockTime = 6 s  Iteration 89 (0.06 s)

Time = 9e-08

    Collisions                      = 10

    Number of DSMC particles        = 100001
    Number of stuck particles       = 44962
    Number of free particles        = 55039
    Average linear kinetic energy   = 9.833613646e-20
    Average rotational energy       = 0
    Average vibrational energy      = 0
    Average electronic energy       = 0
    Total energy                    = 5.412322614e-12

Stage 1.0  ExecutionTime = 6.2 s  ClockTime = 7 s  Iteration 90 (0.06 s)

Time = 9.1e-08

    Collisions                      = 20

    Number of DSMC particles        = 100001
    Number of stuck particles       = 45077
    Number of free particles        = 54924
    Average linear kinetic energy   = 9.860949107e-20
    Average rotational energy       = 0
    Average vibrational energy      = 0
    Average electronic energy       = 0
    Total energy                    = 5.416027687e-12

Stage 1.0  ExecutionTime = 6.27 s  ClockTime = 7 s  Iteration 91 (0.07 s)

Time = 9.2e-08

    Collisions                      = 18

    Number of DSMC particles        = 100001
    Number of stuck particles       = 45121
    Number of free particles        = 54880
    Average linear kinetic energy   = 9.876099241e-20
    Average rotational energy       = 0
    Average vibrational energy      = 0
    Average electronic energy       = 0
    Total energy                    = 5.420003264e-12

Stage 1.0  ExecutionTime = 6.33 s  ClockTime = 7 s  Iteration 92 (0.06 s)

Time = 9.3e-08

    Collisions                      = 20

    Number of DSMC particles        = 100001
    Number of stuck particles       = 45232
    Number of free particles        = 54769
    Average linear kinetic energy   = 9.895585338e-20
    Average rotational energy       = 0
    Average vibrational energy      = 0
    Average electronic energy       = 0
    Total energy                    = 5.419713134e-12

Stage 1.0  ExecutionTime = 6.4 s  ClockTime = 7 s  Iteration 93 (0.07 s)

Time = 9.4e-08

    Collisions                      = 11

    Number of DSMC particles        = 100001
    Number of stuck particles       = 45365
    Number of free particles        = 54636
    Average linear kinetic energy   = 9.901459261e-20
    Average rotational energy       = 0
    Average vibrational energy      = 0
    Average electronic energy       = 0
    Total energy                    = 5.409761282e-12

Stage 1.0  ExecutionTime = 6.46 s  ClockTime = 7 s  Iteration 94 (0.06 s)

Time = 9.5e-08

    Collisions                      = 20

    Number of DSMC particles        = 100001
    Number of stuck particles       = 45414
    Number of free particles        = 54587
    Average linear kinetic energy   = 9.921417976e-20
    Average rotational energy       = 0
    Average vibrational energy      = 0
    Average electronic energy       = 0
    Total energy                    = 5.415804431e-12

Stage 1.0  ExecutionTime = 6.52 s  ClockTime = 7 s  Iteration 95 (0.06 s)

Time = 9.6e-08

    Collisions                      = 17

    Number of DSMC particles        = 100001
    Number of stuck particles       = 45480
    Number of free particles        = 54521
    Average linear kinetic energy   = 9.916642189e-20
    Average rotational energy       = 0
    Average vibrational energy      = 0
    Average electronic energy       = 0
    Total energy                    = 5.406652488e-12

Stage 1.0  ExecutionTime = 6.59 s  ClockTime = 7 s  Iteration 96 (0.07 s)

Time = 9.7e-08

    Collisions                      = 9

    Number of DSMC particles        = 100001
    Number of stuck particles       = 45576
    Number of free particles        = 54425
    Average linear kinetic energy   = 9.932493792e-20
    Average rotational energy       = 0
    Average vibrational energy      = 0
    Average electronic energy       = 0
    Total energy                    = 5.405759746e-12

Stage 1.0  ExecutionTime = 6.65 s  ClockTime = 7 s  Iteration 97 (0.06 s)

Time = 9.8e-08

    Collisions                      = 24

    Number of DSMC particles        = 100001
    Number of stuck particles       = 45660
    Number of free particles        = 54341
    Average linear kinetic energy   = 9.934061722e-20
    Average rotational energy       = 0
    Average vibrational energy      = 0
    Average electronic energy       = 0
    Total energy                    = 5.39826848e-12

Stage 1.0  ExecutionTime = 6.71 s  ClockTime = 7 s  Iteration 98 (0.06 s)

Time = 9.9e-08

    Collisions                      = 15

    Number of DSMC particles        = 100001
    Number of stuck particles       = 45825
    Number of free particles        = 54176
    Average linear kinetic energy   = 9.9394219e-20
    Average rotational energy       = 0
    Average vibrational energy      = 0
    Average electronic energy       = 0
    Total energy                    = 5.384781209e-12

Stage 1.0  ExecutionTime = 6.78 s  ClockTime = 7 s  Iteration 99 (0.07 s)

Time = 1e-07

    Collisions                      = 14

    Number of DSMC particles        = 100001
    Number of stuck particles       = 45911
    Number of free particles        = 54090
    Average linear kinetic energy   = 9.935092361e-20
    Average rotational energy       = 0
    Average vibrational energy      = 0
    Average electronic energy       = 0
    Total energy                    = 5.373891458e-12

Stage 1.0  ExecutionTime = 6.84 s  ClockTime = 7 s  Iteration 100 (0.06 s)

Time = 1.01e-07

    Collisions                      = 14

    Number of DSMC particles        = 100001
    Number of stuck particles       = 45953
    Number of free particles        = 54048
    Average linear kinetic energy   = 9.940886195e-20
    Average rotational energy       = 0
    Average vibrational energy      = 0
    Average electronic energy       = 0
    Total energy                    = 5.372850171e-12

Stage 1.0  ExecutionTime = 6.9 s  ClockTime = 7 s  Iteration 101 (0.06 s)

Time = 1.02e-07

    Collisions                      = 13

    Number of DSMC particles        = 100001
    Number of stuck particles       = 46067
    Number of free particles        = 53934
    Average linear kinetic energy   = 9.933811821e-20
    Average rotational energy       = 0
    Average vibrational energy      = 0
    Average electronic energy       = 0
    Total energy                    = 5.357702068e-12

Stage 1.0  ExecutionTime = 6.97 s  ClockTime = 7 s  Iteration 102 (0.07 s)

Time = 1.03e-07

    Collisions                      = 15

    Number of DSMC particles        = 100001
    Number of stuck particles       = 46150
    Number of free particles        = 53851
    Average linear kinetic energy   = 9.924993025e-20
    Average rotational energy       = 0
    Average vibrational energy      = 0
    Average electronic energy       = 0
    Total energy                    = 5.344707994e-12

Stage 1.0  ExecutionTime = 7.03 s  ClockTime = 7 s  Iteration 103 (0.06 s)

Time = 1.04e-07

    Collisions                      = 20

    Number of DSMC particles        = 100001
    Number of stuck particles       = 46227
    Number of free particles        = 53774
    Average linear kinetic energy   = 9.92864208e-20
    Average rotational energy       = 0
    Average vibrational energy      = 0
    Average electronic energy       = 0
    Total energy                    = 5.339027992e-12

Stage 1.0  ExecutionTime = 7.1 s  ClockTime = 7 s  Iteration 104 (0.07 s)

Time = 1.05e-07

    Collisions                      = 15

    Number of DSMC particles        = 100001
    Number of stuck particles       = 46339
    Number of free particles        = 53662
    Average linear kinetic energy   = 9.944967392e-20
    Average rotational energy       = 0
    Average vibrational energy      = 0
    Average electronic energy       = 0
    Total energy                    = 5.336668402e-12

Stage 1.0  ExecutionTime = 7.16 s  ClockTime = 8 s  Iteration 105 (0.06 s)

Time = 1.06e-07

    Collisions                      = 20

    Number of DSMC particles        = 100001
    Number of stuck particles       = 46408
    Number of free particles        = 53593
    Average linear kinetic energy   = 9.9782268e-20
    Average rotational energy       = 0
    Average vibrational energy      = 0
    Average electronic energy       = 0
    Total energy                    = 5.347631089e-12

Stage 1.0  ExecutionTime = 7.23 s  ClockTime = 8 s  Iteration 106 (0.07 s)

Time = 1.07e-07

    Collisions                      = 24

    Number of DSMC particles        = 100001
    Number of stuck particles       = 46466
    Number of free particles        = 53535
    Average linear kinetic energy   = 1.002042139e-19
    Average rotational energy       = 0
    Average vibrational energy      = 0
    Average electronic energy       = 0
    Total energy                    = 5.364432594e-12

Stage 1.0  ExecutionTime = 7.29 s  ClockTime = 8 s  Iteration 107 (0.06 s)

Time = 1.08e-07

    Collisions                      = 10

    Number of DSMC particles        = 100001
    Number of stuck particles       = 46451
    Number of free particles        = 53550
    Average linear kinetic energy   = 1.003504651e-19
    Average rotational energy       = 0
    Average vibrational energy      = 0
    Average electronic energy       = 0
    Total energy                    = 5.373767406e-12

Stage 1.0  ExecutionTime = 7.36 s  ClockTime = 8 s  Iteration 108 (0.07 s)

Time = 1.09e-07

    Collisions                      = 19

    Number of DSMC particles        = 100001
    Number of stuck particles       = 46457
    Number of free particles        = 53544
    Average linear kinetic energy   = 1.007372879e-19
    Average rotational energy       = 0
    Average vibrational energy      = 0
    Average electronic energy       = 0
    Total energy                    = 5.393877341e-12

Stage 1.0  ExecutionTime = 7.42 s  ClockTime = 8 s  Iteration 109 (0.06 s)

Time = 1.1e-07

    Collisions                      = 19

    Number of DSMC particles        = 100001
    Number of stuck particles       = 46448
    Number of free particles        = 53553
    Average linear kinetic energy   = 1.008296442e-19
    Average rotational energy       = 0
    Average vibrational energy      = 0
    Average electronic energy       = 0
    Total energy                    = 5.399729938e-12

Stage 1.0  ExecutionTime = 7.49 s  ClockTime = 8 s  Iteration 110 (0.07 s)

Time = 1.11e-07

    Collisions                      = 19

    Number of DSMC particles        = 100001
    Number of stuck particles       = 46441
    Number of free particles        = 53560
    Average linear kinetic energy   = 1.011176879e-19
    Average rotational energy       = 0
    Average vibrational energy      = 0
    Average electronic energy       = 0
    Total energy                    = 5.415863362e-12

Stage 1.0  ExecutionTime = 7.56 s  ClockTime = 8 s  Iteration 111 (0.07 s)

Time = 1.12e-07

    Collisions                      = 15

    Number of DSMC particles        = 100001
    Number of stuck particles       = 46531
    Number of free particles        = 53470
    Average linear kinetic energy   = 1.012819585e-19
    Average rotational energy       = 0
    Average vibrational energy      = 0
    Average electronic energy       = 0
    Total energy                    = 5.41554632e-12

Stage 1.0  ExecutionTime = 7.62 s  ClockTime = 8 s  Iteration 112 (0.06 s)

Time = 1.13e-07

    Collisions                      = 15

    Number of DSMC particles        = 100001
    Number of stuck particles       = 46525
    Number of free particles        = 53476
    Average linear kinetic energy   = 1.009732703e-19
    Average rotational energy       = 0
    Average vibrational energy      = 0
    Average electronic energy       = 0
    Total energy                    = 5.3996466e-12

Stage 1.0  ExecutionTime = 7.68 s  ClockTime = 8 s  Iteration 113 (0.06 s)

Time = 1.14e-07

    Collisions                      = 23

    Number of DSMC particles        = 100001
    Number of stuck particles       = 46564
    Number of free particles        = 53437
    Average linear kinetic energy   = 1.008255516e-19
    Average rotational energy       = 0
    Average vibrational energy      = 0
    Average electronic energy       = 0
    Total energy                    = 5.387815001e-12

Stage 1.0  ExecutionTime = 7.75 s  ClockTime = 8 s  Iteration 114 (0.07 s)

Time = 1.15e-07

    Collisions                      = 16

    Number of DSMC particles        = 100001
    Number of stuck particles       = 46588
    Number of free particles        = 53413
    Average linear kinetic energy   = 1.00965934e-19
    Average rotational energy       = 0
    Average vibrational energy      = 0
    Average electronic energy       = 0
    Total energy                    = 5.39289343e-12

Stage 1.0  ExecutionTime = 7.81 s  ClockTime = 8 s  Iteration 115 (0.06 s)

Time = 1.16e-07

    Collisions                      = 14

    Number of DSMC particles        = 100001
    Number of stuck particles       = 46666
    Number of free particles        = 53335
    Average linear kinetic energy   = 1.011356127e-19
    Average rotational energy       = 0
    Average vibrational energy      = 0
    Average electronic energy       = 0
    Total energy                    = 5.394067902e-12

Stage 1.0  ExecutionTime = 7.87 s  ClockTime = 8 s  Iteration 116 (0.06 s)

Time = 1.17e-07

    Collisions                      = 18

    Number of DSMC particles        = 100001
    Number of stuck particles       = 46668
    Number of free particles        = 53333
    Average linear kinetic energy   = 1.011679614e-19
    Average rotational energy       = 0
    Average vibrational energy      = 0
    Average electronic energy       = 0
    Total energy                    = 5.395590884e-12

Stage 1.0  ExecutionTime = 7.94 s  ClockTime = 8 s  Iteration 117 (0.07 s)

Time = 1.18e-07

    Collisions                      = 13

    Number of DSMC particles        = 100001
    Number of stuck particles       = 46725
    Number of free particles        = 53276
    Average linear kinetic energy   = 1.014689902e-19
    Average rotational energy       = 0
    Average vibrational energy      = 0
    Average electronic energy       = 0
    Total energy                    = 5.40586192e-12

Stage 1.0  ExecutionTime = 8 s  ClockTime = 8 s  Iteration 118 (0.06 s)

Time = 1.19e-07

    Collisions                      = 19

    Number of DSMC particles        = 100001
    Number of stuck particles       = 46724
    Number of free particles        = 53277
    Average linear kinetic energy   = 1.014930536e-19
    Average rotational energy       = 0
    Average vibrational energy      = 0
    Average electronic energy       = 0
    Total energy                    = 5.407245417e-12

Stage 1.0  ExecutionTime = 8.07 s  ClockTime = 8 s  Iteration 119 (0.07 s)

Time = 1.2e-07

    Collisions                      = 17

    Number of DSMC particles        = 100001
    Number of stuck particles       = 46847
    Number of free particles        = 53154
    Average linear kinetic energy   = 1.013851043e-19
    Average rotational energy       = 0
    Average vibrational energy      = 0
    Average electronic energy       = 0
    Total energy                    = 5.389023832e-12

Stage 1.0  ExecutionTime = 8.13 s  ClockTime = 8 s  Iteration 120 (0.06 s)

Time = 1.21e-07

    Collisions                      = 14

    Number of DSMC particles        = 100001
    Number of stuck particles       = 46924
    Number of free particles        = 53077
    Average linear kinetic energy   = 1.012226103e-19
    Average rotational energy       = 0
    Average vibrational energy      = 0
    Average electronic energy       = 0
    Total energy                    = 5.372592485e-12

Stage 1.0  ExecutionTime = 8.2 s  ClockTime = 9 s  Iteration 121 (0.07 s)

Time = 1.22e-07

    Collisions                      = 14

    Number of DSMC particles        = 100001
    Number of stuck particles       = 47033
    Number of free particles        = 52968
    Average linear kinetic energy   = 1.016047003e-19
    Average rotational energy       = 0
    Average vibrational energy      = 0
    Average electronic energy       = 0
    Total energy                    = 5.381797765e-12

Stage 1.0  ExecutionTime = 8.26 s  ClockTime = 9 s  Iteration 122 (0.06 s)

Time = 1.23e-07

    Collisions                      = 11

    Number of DSMC particles        = 100001
    Number of stuck particles       = 47045
    Number of free particles        = 52956
    Average linear kinetic energy   = 1.014394981e-19
    Average rotational energy       = 0
    Average vibrational energy      = 0
    Average electronic energy       = 0
    Total energy                    = 5.371830061e-12

Stage 1.0  ExecutionTime = 8.32 s  ClockTime = 9 s  Iteration 123 (0.06 s)

Time = 1.24e-07

    Collisions                      = 15

    Number of DSMC particles        = 100001
    Number of stuck particles       = 47080
    Number of free particles        = 52921
    Average linear kinetic energy   = 1.016018701e-19
    Average rotational energy       = 0
    Average vibrational energy      = 0
    Average electronic energy       = 0
    Total energy                    = 5.376872567e-12

Stage 1.0  ExecutionTime = 8.39 s  ClockTime = 9 s  Iteration 124 (0.07 s)

Time = 1.25e-07

    Collisions                      = 17

    Number of DSMC particles        = 100001
    Number of stuck particles       = 46988
    Number of free particles        = 53013
    Average linear kinetic energy   = 1.018432931e-19
    Average rotational energy       = 0
    Average vibrational energy      = 0
    Average electronic energy       = 0
    Total energy                    = 5.399018498e-12

Stage 1.0  ExecutionTime = 8.46 s  ClockTime = 9 s  Iteration 125 (0.07 s)

Time = 1.26e-07

    Collisions                      = 17

    Number of DSMC particles        = 100001
    Number of stuck particles       = 46946
    Number of free particles        = 53055
    Average linear kinetic energy   = 1.020165071e-19
    Average rotational energy       = 0
    Average vibrational energy      = 0
    Average electronic energy       = 0
    Total energy                    = 5.412485784e-12

Stage 1.0  ExecutionTime = 8.52 s  ClockTime = 9 s  Iteration 126 (0.06 s)

Time = 1.27e-07

    Collisions                      = 9

    Number of DSMC particles        = 100001
    Number of stuck particles       = 46982
    Number of free particles        = 53019
    Average linear kinetic energy   = 1.020985734e-19
    Average rotational energy       = 0
    Average vibrational energy      = 0
    Average electronic energy       = 0
    Total energy                    = 5.413164262e-12

Stage 1.0  ExecutionTime = 8.59 s  ClockTime = 9 s  Iteration 127 (0.07 s)

Time = 1.28e-07

    Collisions                      = 18

    Number of DSMC particles        = 100001
    Number of stuck particles       = 46967
    Number of free particles        = 53034
    Average linear kinetic energy   = 1.02235478e-19
    Average rotational energy       = 0
    Average vibrational energy      = 0
    Average electronic energy       = 0
    Total energy                    = 5.421956342e-12

Stage 1.0  ExecutionTime = 8.65 s  ClockTime = 9 s  Iteration 128 (0.06 s)

Time = 1.29e-07

    Collisions                      = 15

    Number of DSMC particles        = 100001
    Number of stuck particles       = 46948
    Number of free particles        = 53053
    Average linear kinetic energy   = 1.02524654e-19
    Average rotational energy       = 0
    Average vibrational energy      = 0
    Average electronic energy       = 0
    Total energy                    = 5.439240469e-12

Stage 1.0  ExecutionTime = 8.72 s  ClockTime = 9 s  Iteration 129 (0.07 s)

Time = 1.3e-07

    Collisions                      = 16

    Number of DSMC particles        = 100001
    Number of stuck particles       = 46975
    Number of free particles        = 53026
    Average linear kinetic energy   = 1.026477134e-19
    Average rotational energy       = 0
    Average vibrational energy      = 0
    Average electronic energy       = 0
    Total energy                    = 5.442997649e-12

Stage 1.0  ExecutionTime = 8.78 s  ClockTime = 9 s  Iteration 130 (0.06 s)

Time = 1.31e-07

    Collisions                      = 16

    Number of DSMC particles        = 100001
    Number of stuck particles       = 46997
    Number of free particles        = 53004
    Average linear kinetic energy   = 1.030455141e-19
    Average rotational energy       = 0
    Average vibrational energy      = 0
    Average electronic energy       = 0
    Total energy                    = 5.461824428e-12

Stage 1.0  ExecutionTime = 8.84 s  ClockTime = 9 s  Iteration 131 (0.06 s)

Time = 1.32e-07

    Collisions                      = 13

    Number of DSMC particles        = 100001
    Number of stuck particles       = 47066
    Number of free particles        = 52935
    Average linear kinetic energy   = 1.031077326e-19
    Average rotational energy       = 0
    Average vibrational energy      = 0
    Average electronic energy       = 0
    Total energy                    = 5.458007825e-12

Stage 1.0  ExecutionTime = 8.91 s  ClockTime = 9 s  Iteration 132 (0.07 s)

Time = 1.33e-07

    Collisions                      = 18

    Number of DSMC particles        = 100001
    Number of stuck particles       = 47057
    Number of free particles        = 52944
    Average linear kinetic energy   = 1.03046305e-19
    Average rotational energy       = 0
    Average vibrational energy      = 0
    Average electronic energy       = 0
    Total energy                    = 5.455683574e-12

Stage 1.0  ExecutionTime = 8.97 s  ClockTime = 9 s  Iteration 133 (0.06 s)

Time = 1.34e-07

    Collisions                      = 15

    Number of DSMC particles        = 100001
    Number of stuck particles       = 47083
    Number of free particles        = 52918
    Average linear kinetic energy   = 1.030420701e-19
    Average rotational energy       = 0
    Average vibrational energy      = 0
    Average electronic energy       = 0
    Total energy                    = 5.452780267e-12

Stage 1.0  ExecutionTime = 9.04 s  ClockTime = 9 s  Iteration 134 (0.07 s)

Time = 1.35e-07

    Collisions                      = 12

    Number of DSMC particles        = 100001
    Number of stuck particles       = 47071
    Number of free particles        = 52930
    Average linear kinetic energy   = 1.030312451e-19
    Average rotational energy       = 0
    Average vibrational energy      = 0
    Average electronic energy       = 0
    Total energy                    = 5.453443804e-12

Stage 1.0  ExecutionTime = 9.1 s  ClockTime = 9 s  Iteration 135 (0.06 s)

Time = 1.36e-07

    Collisions                      = 15

    Number of DSMC particles        = 100001
    Number of stuck particles       = 47119
    Number of free particles        = 52882
    Average linear kinetic energy   = 1.032323537e-19
    Average rotational energy       = 0
    Average vibrational energy      = 0
    Average electronic energy       = 0
    Total energy                    = 5.45913333e-12

Stage 1.0  ExecutionTime = 9.17 s  ClockTime = 10 s  Iteration 136 (0.07 s)

Time = 1.37e-07

    Collisions                      = 13

    Number of DSMC particles        = 100001
    Number of stuck particles       = 47127
    Number of free particles        = 52874
    Average linear kinetic energy   = 1.032193041e-19
    Average rotational energy       = 0
    Average vibrational energy      = 0
    Average electronic energy       = 0
    Total energy                    = 5.457617488e-12

Stage 1.0  ExecutionTime = 9.23 s  ClockTime = 10 s  Iteration 137 (0.06 s)

Time = 1.38e-07

    Collisions                      = 17

    Number of DSMC particles        = 100001
    Number of stuck particles       = 47111
    Number of free particles        = 52890
    Average linear kinetic energy   = 1.034553195e-19
    Average rotational energy       = 0
    Average vibrational energy      = 0
    Average electronic energy       = 0
    Total energy                    = 5.47175185e-12

Stage 1.0  ExecutionTime = 9.3 s  ClockTime = 10 s  Iteration 138 (0.07 s)

Time = 1.39e-07

    Collisions                      = 21

    Number of DSMC particles        = 100001
    Number of stuck particles       = 47123
    Number of free particles        = 52878
    Average linear kinetic energy   = 1.035701293e-19
    Average rotational energy       = 0
    Average vibrational energy      = 0
    Average electronic energy       = 0
    Total energy                    = 5.476581298e-12

Stage 1.0  ExecutionTime = 9.36 s  ClockTime = 10 s  Iteration 139 (0.06 s)

Time = 1.4e-07

    Collisions                      = 16

    Number of DSMC particles        = 100001
    Number of stuck particles       = 47099
    Number of free particles        = 52902
    Average linear kinetic energy   = 1.040354218e-19
    Average rotational energy       = 0
    Average vibrational energy      = 0
    Average electronic energy       = 0
    Total energy                    = 5.503681884e-12

Stage 1.0  ExecutionTime = 9.43 s  ClockTime = 10 s  Iteration 140 (0.07 s)

Time = 1.41e-07

    Collisions                      = 11

    Number of DSMC particles        = 100001
    Number of stuck particles       = 47171
    Number of free particles        = 52830
    Average linear kinetic energy   = 1.041236034e-19
    Average rotational energy       = 0
    Average vibrational energy      = 0
    Average electronic energy       = 0
    Total energy                    = 5.500849968e-12

Stage 1.0  ExecutionTime = 9.49 s  ClockTime = 10 s  Iteration 141 (0.06 s)

Time = 1.42e-07

    Collisions                      = 16

    Number of DSMC particles        = 100001
    Number of stuck particles       = 47219
    Number of free particles        = 52782
    Average linear kinetic energy   = 1.04181802e-19
    Average rotational energy       = 0
    Average vibrational energy      = 0
    Average electronic energy       = 0
    Total energy                    = 5.498923873e-12

Stage 1.0  ExecutionTime = 9.55 s  ClockTime = 10 s  Iteration 142 (0.06 s)

Time = 1.43e-07

    Collisions                      = 19

    Number of DSMC particles        = 100001
    Number of stuck particles       = 47208
    Number of free particles        = 52793
    Average linear kinetic energy   = 1.040276397e-19
    Average rotational energy       = 0
    Average vibrational energy      = 0
    Average electronic energy       = 0
    Total energy                    = 5.491931184e-12

Stage 1.0  ExecutionTime = 9.62 s  ClockTime = 10 s  Iteration 143 (0.07 s)

Time = 1.44e-07

    Collisions                      = 15

    Number of DSMC particles        = 100001
    Number of stuck particles       = 47254
    Number of free particles        = 52747
    Average linear kinetic energy   = 1.04162553e-19
    Average rotational energy       = 0
    Average vibrational energy      = 0
    Average electronic energy       = 0
    Total energy                    = 5.494262185e-12

Stage 1.0  ExecutionTime = 9.68 s  ClockTime = 10 s  Iteration 144 (0.06 s)

Time = 1.45e-07

    Collisions                      = 19

    Number of DSMC particles        = 100001
    Number of stuck particles       = 47300
    Number of free particles        = 52701
    Average linear kinetic energy   = 1.042992441e-19
    Average rotational energy       = 0
    Average vibrational energy      = 0
    Average electronic energy       = 0
    Total energy                    = 5.496674461e-12

Stage 1.0  ExecutionTime = 9.75 s  ClockTime = 10 s  Iteration 145 (0.07 s)

Time = 1.46e-07

    Collisions                      = 24

    Number of DSMC particles        = 100001
    Number of stuck particles       = 47347
    Number of free particles        = 52654
    Average linear kinetic energy   = 1.043066809e-19
    Average rotational energy       = 0
    Average vibrational energy      = 0
    Average electronic energy       = 0
    Total energy                    = 5.492163976e-12

Stage 1.0  ExecutionTime = 9.81 s  ClockTime = 10 s  Iteration 146 (0.06 s)

Time = 1.47e-07

    Collisions                      = 10

    Number of DSMC particles        = 100001
    Number of stuck particles       = 47403
    Number of free particles        = 52598
    Average linear kinetic energy   = 1.042406585e-19
    Average rotational energy       = 0
    Average vibrational energy      = 0
    Average electronic energy       = 0
    Total energy                    = 5.482850156e-12

Stage 1.0  ExecutionTime = 9.88 s  ClockTime = 10 s  Iteration 147 (0.07 s)

Time = 1.48e-07

    Collisions                      = 18

    Number of DSMC particles        = 100001
    Number of stuck particles       = 47388
    Number of free particles        = 52613
    Average linear kinetic energy   = 1.04515476e-19
    Average rotational energy       = 0
    Average vibrational energy      = 0
    Average electronic energy       = 0
    Total energy                    = 5.498872739e-12

Stage 1.0  ExecutionTime = 9.94 s  ClockTime = 10 s  Iteration 148 (0.06 s)

Time = 1.49e-07

    Collisions                      = 17

    Number of DSMC particles        = 100001
    Number of stuck particles       = 47434
    Number of free particles        = 52567
    Average linear kinetic energy   = 1.045288502e-19
    Average rotational energy       = 0
    Average vibrational energy      = 0
    Average electronic energy       = 0
    Total energy                    = 5.494768071e-12

Stage 1.0  ExecutionTime = 10.01 s  ClockTime = 10 s  Iteration 149 (0.07 s)

Time = 1.5e-07

    Collisions                      = 11

    Number of DSMC particles        = 100001
    Number of stuck particles       = 47460
    Number of free particles        = 52541
    Average linear kinetic energy   = 1.045780968e-19
    Average rotational energy       = 0
    Average vibrational energy      = 0
    Average electronic energy       = 0
    Total energy                    = 5.494637785e-12

Stage 1.0  ExecutionTime = 10.07 s  ClockTime = 10 s  Iteration 150 (0.06 s)

Time = 1.51e-07

    Collisions                      = 14

    Number of DSMC particles        = 100001
    Number of stuck particles       = 47503
    Number of free particles        = 52498
    Average linear kinetic energy   = 1.046378606e-19
    Average rotational energy       = 0
    Average vibrational energy      = 0
    Average electronic energy       = 0
    Total energy                    = 5.493278404e-12

Stage 1.0  ExecutionTime = 10.14 s  ClockTime = 11 s  Iteration 151 (0.07 s)

Time = 1.52e-07

    Collisions                      = 17

    Number of DSMC particles        = 100001
    Number of stuck particles       = 47551
    Number of free particles        = 52450
    Average linear kinetic energy   = 1.045921391e-19
    Average rotational energy       = 0
    Average vibrational energy      = 0
    Average electronic energy       = 0
    Total energy                    = 5.485857698e-12

Stage 1.0  ExecutionTime = 10.2 s  ClockTime = 11 s  Iteration 152 (0.06 s)

Time = 1.53e-07

    Collisions                      = 21

    Number of DSMC particles        = 100001
    Number of stuck particles       = 47612
    Number of free particles        = 52389
    Average linear kinetic energy   = 1.044574983e-19
    Average rotational energy       = 0
    Average vibrational energy      = 0
    Average electronic energy       = 0
    Total energy                    = 5.472423879e-12

Stage 1.0  ExecutionTime = 10.27 s  ClockTime = 11 s  Iteration 153 (0.07 s)

Time = 1.54e-07

    Collisions                      = 17

    Number of DSMC particles        = 100001
    Number of stuck particles       = 47544
    Number of free particles        = 52457
    Average linear kinetic energy   = 1.047588046e-19
    Average rotational energy       = 0
    Average vibrational energy      = 0
    Average electronic energy       = 0
    Total energy                    = 5.495332613e-12

Stage 1.0  ExecutionTime = 10.33 s  ClockTime = 11 s  Iteration 154 (0.06 s)

Time = 1.55e-07

    Collisions                      = 24

    Number of DSMC particles        = 100001
    Number of stuck particles       = 47539
    Number of free particles        = 52462
    Average linear kinetic energy   = 1.050775479e-19
    Average rotational energy       = 0
    Average vibrational energy      = 0
    Average electronic energy       = 0
    Total energy                    = 5.512578319e-12

Stage 1.0  ExecutionTime = 10.4 s  ClockTime = 11 s  Iteration 155 (0.07 s)

Time = 1.56e-07

    Collisions                      = 17

    Number of DSMC particles        = 100001
    Number of stuck particles       = 47563
    Number of free particles        = 52438
    Average linear kinetic energy   = 1.047556606e-19
    Average rotational energy       = 0
    Average vibrational energy      = 0
    Average electronic energy       = 0
    Total energy                    = 5.493177333e-12

Stage 1.0  ExecutionTime = 10.46 s  ClockTime = 11 s  Iteration 156 (0.06 s)

Time = 1.57e-07

    Collisions                      = 17

    Number of DSMC particles        = 100001
    Number of stuck particles       = 47580
    Number of free particles        = 52421
    Average linear kinetic energy   = 1.045446944e-19
    Average rotational energy       = 0
    Average vibrational energy      = 0
    Average electronic energy       = 0
    Total energy                    = 5.480337427e-12

Stage 1.0  ExecutionTime = 10.52 s  ClockTime = 11 s  Iteration 157 (0.06 s)

Time = 1.58e-07

[...]

Time = 9.61e-07

    Collisions                      = 14

    Number of DSMC particles        = 100001
    Number of stuck particles       = 50071
    Number of free particles        = 49930
    Average linear kinetic energy   = 1.135134365e-19
    Average rotational energy       = 0
    Average vibrational energy      = 0
    Average electronic energy       = 0
    Total energy                    = 5.667725884e-12

Stage 1.0  ExecutionTime = 66.14 s  ClockTime = 67 s  Iteration 961 (0.07 s)

Time = 9.62e-07

    Collisions                      = 17

    Number of DSMC particles        = 100001
    Number of stuck particles       = 50051
    Number of free particles        = 49950
    Average linear kinetic energy   = 1.136127641e-19
    Average rotational energy       = 0
    Average vibrational energy      = 0
    Average electronic energy       = 0
    Total energy                    = 5.674957566e-12

Stage 1.0  ExecutionTime = 66.21 s  ClockTime = 67 s  Iteration 962 (0.07 s)

Time = 9.63e-07

    Collisions                      = 14

    Number of DSMC particles        = 100001
    Number of stuck particles       = 50070
    Number of free particles        = 49931
    Average linear kinetic energy   = 1.134788221e-19
    Average rotational energy       = 0
    Average vibrational energy      = 0
    Average electronic energy       = 0
    Total energy                    = 5.666111067e-12

Stage 1.0  ExecutionTime = 66.28 s  ClockTime = 67 s  Iteration 963 (0.07 s)

Time = 9.64e-07

    Collisions                      = 21

    Number of DSMC particles        = 100001
    Number of stuck particles       = 50007
    Number of free particles        = 49994
    Average linear kinetic energy   = 1.136139171e-19
    Average rotational energy       = 0
    Average vibrational energy      = 0
    Average electronic energy       = 0
    Total energy                    = 5.680014171e-12

Stage 1.0  ExecutionTime = 66.35 s  ClockTime = 67 s  Iteration 964 (0.07 s)

Time = 9.65e-07

    Collisions                      = 15

    Number of DSMC particles        = 100001
    Number of stuck particles       = 50000
    Number of free particles        = 50001
    Average linear kinetic energy   = 1.136238494e-19
    Average rotational energy       = 0
    Average vibrational energy      = 0
    Average electronic energy       = 0
    Total energy                    = 5.681306096e-12

Stage 1.0  ExecutionTime = 66.42 s  ClockTime = 67 s  Iteration 965 (0.07 s)

Time = 9.66e-07

    Collisions                      = 9

    Number of DSMC particles        = 100001
    Number of stuck particles       = 50021
    Number of free particles        = 49980
    Average linear kinetic energy   = 1.138308547e-19
    Average rotational energy       = 0
    Average vibrational energy      = 0
    Average electronic energy       = 0
    Total energy                    = 5.689266116e-12

Stage 1.0  ExecutionTime = 66.48 s  ClockTime = 67 s  Iteration 966 (0.06 s)

Time = 9.67e-07

    Collisions                      = 27

    Number of DSMC particles        = 100001
    Number of stuck particles       = 50005
    Number of free particles        = 49996
    Average linear kinetic energy   = 1.142379937e-19
    Average rotational energy       = 0
    Average vibrational energy      = 0
    Average electronic energy       = 0
    Total energy                    = 5.711442731e-12

Stage 1.0  ExecutionTime = 66.55 s  ClockTime = 67 s  Iteration 967 (0.07 s)

Time = 9.68e-07

    Collisions                      = 11

    Number of DSMC particles        = 100001
    Number of stuck particles       = 50023
    Number of free particles        = 49978
    Average linear kinetic energy   = 1.140777771e-19
    Average rotational energy       = 0
    Average vibrational energy      = 0
    Average electronic energy       = 0
    Total energy                    = 5.701379145e-12

Stage 1.0  ExecutionTime = 66.63 s  ClockTime = 67 s  Iteration 968 (0.08 s)

Time = 9.69e-07

    Collisions                      = 17

    Number of DSMC particles        = 100001
    Number of stuck particles       = 50013
    Number of free particles        = 49988
    Average linear kinetic energy   = 1.141114115e-19
    Average rotational energy       = 0
    Average vibrational energy      = 0
    Average electronic energy       = 0
    Total energy                    = 5.704201236e-12

Stage 1.0  ExecutionTime = 66.7 s  ClockTime = 67 s  Iteration 969 (0.07 s)

Time = 9.7e-07

    Collisions                      = 12

    Number of DSMC particles        = 100001
    Number of stuck particles       = 50022
    Number of free particles        = 49979
    Average linear kinetic energy   = 1.140527082e-19
    Average rotational energy       = 0
    Average vibrational energy      = 0
    Average electronic energy       = 0
    Total energy                    = 5.700240301e-12

Stage 1.0  ExecutionTime = 66.77 s  ClockTime = 67 s  Iteration 970 (0.07 s)

Time = 9.71e-07

    Collisions                      = 8

    Number of DSMC particles        = 100001
    Number of stuck particles       = 49957
    Number of free particles        = 50044
    Average linear kinetic energy   = 1.139475974e-19
    Average rotational energy       = 0
    Average vibrational energy      = 0
    Average electronic energy       = 0
    Total energy                    = 5.702393566e-12

Stage 1.0  ExecutionTime = 66.84 s  ClockTime = 67 s  Iteration 971 (0.07 s)

Time = 9.72e-07

    Collisions                      = 17

    Number of DSMC particles        = 100001
    Number of stuck particles       = 49951
    Number of free particles        = 50050
    Average linear kinetic energy   = 1.134646541e-19
    Average rotational energy       = 0
    Average vibrational energy      = 0
    Average electronic energy       = 0
    Total energy                    = 5.678905936e-12

Stage 1.0  ExecutionTime = 66.91 s  ClockTime = 67 s  Iteration 972 (0.07 s)

Time = 9.73e-07

    Collisions                      = 16

    Number of DSMC particles        = 100001
    Number of stuck particles       = 49979
    Number of free particles        = 50022
    Average linear kinetic energy   = 1.135920018e-19
    Average rotational energy       = 0
    Average vibrational energy      = 0
    Average electronic energy       = 0
    Total energy                    = 5.682099114e-12

Stage 1.0  ExecutionTime = 66.98 s  ClockTime = 67 s  Iteration 973 (0.07 s)

Time = 9.74e-07

    Collisions                      = 14

    Number of DSMC particles        = 100001
    Number of stuck particles       = 49982
    Number of free particles        = 50019
    Average linear kinetic energy   = 1.132373892e-19
    Average rotational energy       = 0
    Average vibrational energy      = 0
    Average electronic energy       = 0
    Total energy                    = 5.664020971e-12

Stage 1.0  ExecutionTime = 67.06 s  ClockTime = 67 s  Iteration 974 (0.08 s)

Time = 9.75e-07

    Collisions                      = 12

    Number of DSMC particles        = 100001
    Number of stuck particles       = 50020
    Number of free particles        = 49981
    Average linear kinetic energy   = 1.133360948e-19
    Average rotational energy       = 0
    Average vibrational energy      = 0
    Average electronic energy       = 0
    Total energy                    = 5.664651353e-12

Stage 1.0  ExecutionTime = 67.13 s  ClockTime = 68 s  Iteration 975 (0.07 s)

Time = 9.76e-07

    Collisions                      = 15

    Number of DSMC particles        = 100001
    Number of stuck particles       = 49962
    Number of free particles        = 50039
    Average linear kinetic energy   = 1.131310673e-19
    Average rotational energy       = 0
    Average vibrational energy      = 0
    Average electronic energy       = 0
    Total energy                    = 5.660965478e-12

Stage 1.0  ExecutionTime = 67.2 s  ClockTime = 68 s  Iteration 976 (0.07 s)

Time = 9.77e-07

    Collisions                      = 14

    Number of DSMC particles        = 100001
    Number of stuck particles       = 49964
    Number of free particles        = 50037
    Average linear kinetic energy   = 1.130450936e-19
    Average rotational energy       = 0
    Average vibrational energy      = 0
    Average electronic energy       = 0
    Total energy                    = 5.656437348e-12

Stage 1.0  ExecutionTime = 67.28 s  ClockTime = 68 s  Iteration 977 (0.08 s)

Time = 9.78e-07

    Collisions                      = 18

    Number of DSMC particles        = 100001
    Number of stuck particles       = 49989
    Number of free particles        = 50012
    Average linear kinetic energy   = 1.130192108e-19
    Average rotational energy       = 0
    Average vibrational energy      = 0
    Average electronic energy       = 0
    Total energy                    = 5.652316771e-12

Stage 1.0  ExecutionTime = 67.35 s  ClockTime = 68 s  Iteration 978 (0.07 s)

Time = 9.79e-07

    Collisions                      = 18

    Number of DSMC particles        = 100001
    Number of stuck particles       = 49986
    Number of free particles        = 50015
    Average linear kinetic energy   = 1.131454035e-19
    Average rotational energy       = 0
    Average vibrational energy      = 0
    Average electronic energy       = 0
    Total energy                    = 5.658967356e-12

Stage 1.0  ExecutionTime = 67.42 s  ClockTime = 68 s  Iteration 979 (0.07 s)

Time = 9.8e-07

    Collisions                      = 15

    Number of DSMC particles        = 100001
    Number of stuck particles       = 50019
    Number of free particles        = 49982
    Average linear kinetic energy   = 1.130391896e-19
    Average rotational energy       = 0
    Average vibrational energy      = 0
    Average electronic energy       = 0
    Total energy                    = 5.649924775e-12

Stage 1.0  ExecutionTime = 67.49 s  ClockTime = 68 s  Iteration 980 (0.07 s)

Time = 9.81e-07

    Collisions                      = 19

    Number of DSMC particles        = 100001
    Number of stuck particles       = 50023
    Number of free particles        = 49978
    Average linear kinetic energy   = 1.129410687e-19
    Average rotational energy       = 0
    Average vibrational energy      = 0
    Average electronic energy       = 0
    Total energy                    = 5.644568732e-12

Stage 1.0  ExecutionTime = 67.56 s  ClockTime = 68 s  Iteration 981 (0.07 s)

Time = 9.82e-07

    Collisions                      = 18

    Number of DSMC particles        = 100001
    Number of stuck particles       = 50014
    Number of free particles        = 49987
    Average linear kinetic energy   = 1.131337392e-19
    Average rotational energy       = 0
    Average vibrational energy      = 0
    Average electronic energy       = 0
    Total energy                    = 5.655216219e-12

Stage 1.0  ExecutionTime = 67.62 s  ClockTime = 68 s  Iteration 982 (0.06 s)

Time = 9.83e-07

    Collisions                      = 13

    Number of DSMC particles        = 100001
    Number of stuck particles       = 50014
    Number of free particles        = 49987
    Average linear kinetic energy   = 1.131176164e-19
    Average rotational energy       = 0
    Average vibrational energy      = 0
    Average electronic energy       = 0
    Total energy                    = 5.654410289e-12

Stage 1.0  ExecutionTime = 67.7 s  ClockTime = 68 s  Iteration 983 (0.08 s)

Time = 9.84e-07

    Collisions                      = 25

    Number of DSMC particles        = 100001
    Number of stuck particles       = 50089
    Number of free particles        = 49912
    Average linear kinetic energy   = 1.127449587e-19
    Average rotational energy       = 0
    Average vibrational energy      = 0
    Average electronic energy       = 0
    Total energy                    = 5.627326378e-12

Stage 1.0  ExecutionTime = 67.77 s  ClockTime = 68 s  Iteration 984 (0.07 s)

Time = 9.85e-07

    Collisions                      = 23

    Number of DSMC particles        = 100001
    Number of stuck particles       = 50068
    Number of free particles        = 49933
    Average linear kinetic energy   = 1.126542029e-19
    Average rotational energy       = 0
    Average vibrational energy      = 0
    Average electronic energy       = 0
    Total energy                    = 5.625162315e-12

Stage 1.0  ExecutionTime = 67.84 s  ClockTime = 68 s  Iteration 985 (0.07 s)

Time = 9.86e-07

    Collisions                      = 11

    Number of DSMC particles        = 100001
    Number of stuck particles       = 50026
    Number of free particles        = 49975
    Average linear kinetic energy   = 1.128012742e-19
    Average rotational energy       = 0
    Average vibrational energy      = 0
    Average electronic energy       = 0
    Total energy                    = 5.637243678e-12

Stage 1.0  ExecutionTime = 67.91 s  ClockTime = 68 s  Iteration 986 (0.07 s)

Time = 9.87e-07

    Collisions                      = 22

    Number of DSMC particles        = 100001
    Number of stuck particles       = 50083
    Number of free particles        = 49918
    Average linear kinetic energy   = 1.128104677e-19
    Average rotational energy       = 0
    Average vibrational energy      = 0
    Average electronic energy       = 0
    Total energy                    = 5.631272929e-12

Stage 1.0  ExecutionTime = 67.98 s  ClockTime = 68 s  Iteration 987 (0.07 s)

Time = 9.88e-07

    Collisions                      = 16

    Number of DSMC particles        = 100001
    Number of stuck particles       = 50103
    Number of free particles        = 49898
    Average linear kinetic energy   = 1.126642757e-19
    Average rotational energy       = 0
    Average vibrational energy      = 0
    Average electronic energy       = 0
    Total energy                    = 5.621722028e-12

Stage 1.0  ExecutionTime = 68.05 s  ClockTime = 68 s  Iteration 988 (0.07 s)

Time = 9.89e-07

    Collisions                      = 14

    Number of DSMC particles        = 100001
    Number of stuck particles       = 50111
    Number of free particles        = 49890
    Average linear kinetic energy   = 1.128504457e-19
    Average rotational energy       = 0
    Average vibrational energy      = 0
    Average electronic energy       = 0
    Total energy                    = 5.630108734e-12

Stage 1.0  ExecutionTime = 68.12 s  ClockTime = 69 s  Iteration 989 (0.07 s)

Time = 9.9e-07

    Collisions                      = 15

    Number of DSMC particles        = 100001
    Number of stuck particles       = 50067
    Number of free particles        = 49934
    Average linear kinetic energy   = 1.128520053e-19
    Average rotational energy       = 0
    Average vibrational energy      = 0
    Average electronic energy       = 0
    Total energy                    = 5.635152031e-12

Stage 1.0  ExecutionTime = 68.19 s  ClockTime = 69 s  Iteration 990 (0.07 s)

Time = 9.91e-07

    Collisions                      = 13

    Number of DSMC particles        = 100001
    Number of stuck particles       = 50030
    Number of free particles        = 49971
    Average linear kinetic energy   = 1.128075192e-19
    Average rotational energy       = 0
    Average vibrational energy      = 0
    Average electronic energy       = 0
    Total energy                    = 5.637104544e-12

Stage 1.0  ExecutionTime = 68.26 s  ClockTime = 69 s  Iteration 991 (0.07 s)

Time = 9.92e-07

    Collisions                      = 20

    Number of DSMC particles        = 100001
    Number of stuck particles       = 50122
    Number of free particles        = 49879
    Average linear kinetic energy   = 1.126414283e-19
    Average rotational energy       = 0
    Average vibrational energy      = 0
    Average electronic energy       = 0
    Total energy                    = 5.618441802e-12

Stage 1.0  ExecutionTime = 68.33 s  ClockTime = 69 s  Iteration 992 (0.07 s)

Time = 9.93e-07

    Collisions                      = 14

    Number of DSMC particles        = 100001
    Number of stuck particles       = 50080
    Number of free particles        = 49921
    Average linear kinetic energy   = 1.127141858e-19
    Average rotational energy       = 0
    Average vibrational energy      = 0
    Average electronic energy       = 0
    Total energy                    = 5.626804867e-12

Stage 1.0  ExecutionTime = 68.39 s  ClockTime = 69 s  Iteration 993 (0.06 s)

Time = 9.94e-07

    Collisions                      = 19

    Number of DSMC particles        = 100001
    Number of stuck particles       = 50063
    Number of free particles        = 49938
    Average linear kinetic energy   = 1.126236679e-19
    Average rotational energy       = 0
    Average vibrational energy      = 0
    Average electronic energy       = 0
    Total energy                    = 5.624200727e-12

Stage 1.0  ExecutionTime = 68.46 s  ClockTime = 69 s  Iteration 994 (0.07 s)

Time = 9.95e-07

    Collisions                      = 17

    Number of DSMC particles        = 100001
    Number of stuck particles       = 50013
    Number of free particles        = 49988
    Average linear kinetic energy   = 1.126414917e-19
    Average rotational energy       = 0
    Average vibrational energy      = 0
    Average electronic energy       = 0
    Total energy                    = 5.630722887e-12

Stage 1.0  ExecutionTime = 68.53 s  ClockTime = 69 s  Iteration 995 (0.07 s)

Time = 9.96e-07

    Collisions                      = 20

    Number of DSMC particles        = 100001
    Number of stuck particles       = 50020
    Number of free particles        = 49981
    Average linear kinetic energy   = 1.123752112e-19
    Average rotational energy       = 0
    Average vibrational energy      = 0
    Average electronic energy       = 0
    Total energy                    = 5.616625432e-12

Stage 1.0  ExecutionTime = 68.6 s  ClockTime = 69 s  Iteration 996 (0.07 s)

Time = 9.97e-07

    Collisions                      = 22

    Number of DSMC particles        = 100001
    Number of stuck particles       = 49957
    Number of free particles        = 50044
    Average linear kinetic energy   = 1.124817113e-19
    Average rotational energy       = 0
    Average vibrational energy      = 0
    Average electronic energy       = 0
    Total energy                    = 5.629034759e-12

Stage 1.0  ExecutionTime = 68.66 s  ClockTime = 69 s  Iteration 997 (0.06 s)

Time = 9.98e-07

    Collisions                      = 21

    Number of DSMC particles        = 100001
    Number of stuck particles       = 49968
    Number of free particles        = 50033
    Average linear kinetic energy   = 1.126357169e-19
    Average rotational energy       = 0
    Average vibrational energy      = 0
    Average electronic energy       = 0
    Total energy                    = 5.635502825e-12

Stage 1.0  ExecutionTime = 68.74 s  ClockTime = 69 s  Iteration 998 (0.08 s)

Time = 9.99e-07

    Collisions                      = 18

    Number of DSMC particles        = 100001
    Number of stuck particles       = 49934
    Number of free particles        = 50067
    Average linear kinetic energy   = 1.127206066e-19
    Average rotational energy       = 0
    Average vibrational energy      = 0
    Average electronic energy       = 0
    Total energy                    = 5.643582609e-12

Stage 1.0  ExecutionTime = 68.8 s  ClockTime = 69 s  Iteration 999 (0.06 s)

Time = 1e-06

    Collisions                      = 22

    Number of DSMC particles        = 100001
    Number of stuck particles       = 49910
    Number of free particles        = 50091
    Average linear kinetic energy   = 1.127460501e-19
    Average rotational energy       = 0
    Average vibrational energy      = 0
    Average electronic energy       = 0
    Total energy                    = 5.647562393e-12

Stage 1.0  ExecutionTime = 69.71 s  ClockTime = 70 s  Iteration 1000 (0.91 s)

End stage 1

Total Iterations = 1000
End main

