/*---------------------------------------------------------------------------*\
| =========                 |                                                 |
| \\      /  F ield         | OpenFOAM: The Open Source CFD Toolbox           |
|  \\    /   O peration     | Version:  v1706                                 |
|   \\  /    A nd           | Web:      www.OpenFOAM.com                      |
|    \\/     M anipulation  |                                                 |
\*---------------------------------------------------------------------------*/
Build  : v1706
Arch   : "LSB;label=32;scalar=64"
Exec   : dsmcFoam+
Date   : Jan 10 2019
Time   : 20:12:59
Host   : "Galileo"
PID    : 2183
Case   : /home/vincent/OpenFOAM/vincent-v1706/hyStrath/run/hyStrath/dsmcFoam+/thermalRelaxation/vibrationalHeating_N2
nProcs : 1
sigFpe : Enabling floating point exception trapping (FOAM_SIGFPE).
fileModificationChecking : Monitoring run-time modified files using timeStampMaster (fileModificationSkew 10)
allowSystemOperations : Allowing user-supplied system call operations

// * * * * * * * * * * * * * * * * * * * * * * * * * * * * * * * * * * * * * //
Create time

Create mesh for time = 0

Selecting dynamicFvMesh dynamicRefineFvMesh

Constructing dsmcCloud 
Selecting the coordinate system model:	dsmcCartesian

Selecting the time-step model:	dsmcConstantTimeStepModel

Constant time-step model:
- time-step [sec]	5e-09

Selecting the porous measurement model:	dsmcNoPorousMediumMeasurements


Creating dsmcControllers

Creating fields: 

Selecting field: dsmcVolFields

TimeData Statistics: 
 measurement option: write
 nSamples: 1, time interval: 5e-09
 nAverages: 1, time interval: 5e-09
 total no. of sampling steps: 800
 total no. of averaging Steps: 800


Creating the boundary models: 

Selecting BinaryCollisionModel LarsenBorgnakkeVariableHardSphere

Creating dsmcReactions

WARNING: there are no reactions.

Constructing constant properties for
	N2
pair addressing: 1(1(-1))
Selecting collisionPartnerSelectionModel noTimeCounter

Initialising the measurement fields

Initialising dsmcVolFields field

Starting time loop

degreesOfFreedomSpecies[i]	0.5114330493
totalvDof_[cell]	0.5114330493	vibrationalT_[cell]	1463.543129
totalelDof	0	electronicT_[cell]	0
degreesOfFreedomSpecies[i]	0.7512610968
totalvDof_[cell]	0.7512610968	vibrationalT_[cell]	1962.058473
totalelDof	0	electronicT_[cell]	0
degreesOfFreedomSpecies[i]	0.9054469596
totalvDof_[cell]	0.9054469596	vibrationalT_[cell]	2374.418994
totalelDof	0	electronicT_[cell]	0
degreesOfFreedomSpecies[i]	1.012910922
totalvDof_[cell]	1.012910922	vibrationalT_[cell]	2729.346367
totalelDof	0	electronicT_[cell]	0
degreesOfFreedomSpecies[i]	1.095669064
totalvDof_[cell]	1.095669064	vibrationalT_[cell]	3055.768197
totalelDof	0	electronicT_[cell]	0
degreesOfFreedomSpecies[i]	1.156780555
totalvDof_[cell]	1.156780555	vibrationalT_[cell]	3335.596011
totalelDof	0	electronicT_[cell]	0
degreesOfFreedomSpecies[i]	1.208397178
totalvDof_[cell]	1.208397178	vibrationalT_[cell]	3604.090916
totalelDof	0	electronicT_[cell]	0
degreesOfFreedomSpecies[i]	1.254742959
totalvDof_[cell]	1.254742959	vibrationalT_[cell]	3875.682885
totalelDof	0	electronicT_[cell]	0
degreesOfFreedomSpecies[i]	1.294717944
totalvDof_[cell]	1.294717944	vibrationalT_[cell]	4137.719244
totalelDof	0	electronicT_[cell]	0
degreesOfFreedomSpecies[i]	1.334389116
totalvDof_[cell]	1.334389116	vibrationalT_[cell]	4428.054618
totalelDof	0	electronicT_[cell]	0
degreesOfFreedomSpecies[i]	1.364188093
totalvDof_[cell]	1.364188093	vibrationalT_[cell]	4669.424072
totalelDof	0	electronicT_[cell]	0
degreesOfFreedomSpecies[i]	1.388019974
totalvDof_[cell]	1.388019974	vibrationalT_[cell]	4879.03963
totalelDof	0	electronicT_[cell]	0
degreesOfFreedomSpecies[i]	1.41014213
totalvDof_[cell]	1.41014213	vibrationalT_[cell]	5088.504758
totalelDof	0	electronicT_[cell]	0
degreesOfFreedomSpecies[i]	1.42889323
totalvDof_[cell]	1.42889323	vibrationalT_[cell]	5278.550914
totalelDof	0	electronicT_[cell]	0
degreesOfFreedomSpecies[i]	1.444958228
totalvDof_[cell]	1.444958228	vibrationalT_[cell]	5451.434039
totalelDof	0	electronicT_[cell]	0
degreesOfFreedomSpecies[i]	1.461807719
totalvDof_[cell]	1.461807719	vibrationalT_[cell]	5643.695894
totalelDof	0	electronicT_[cell]	0
degreesOfFreedomSpecies[i]	1.478410402
totalvDof_[cell]	1.478410402	vibrationalT_[cell]	5845.136144
totalelDof	0	electronicT_[cell]	0
degreesOfFreedomSpecies[i]	1.492366421
totalvDof_[cell]	1.492366421	vibrationalT_[cell]	6024.53691
totalelDof	0	electronicT_[cell]	0
degreesOfFreedomSpecies[i]	1.505669462
totalvDof_[cell]	1.505669462	vibrationalT_[cell]	6204.869702
totalelDof	0	electronicT_[cell]	0
degreesOfFreedomSpecies[i]	1.517146412
totalvDof_[cell]	1.517146412	vibrationalT_[cell]	6368.350242
totalelDof	0	electronicT_[cell]	0
degreesOfFreedomSpecies[i]	1.527938559
totalvDof_[cell]	1.527938559	vibrationalT_[cell]	6529.257687
totalelDof	0	electronicT_[cell]	0
degreesOfFreedomSpecies[i]	1.538985547
totalvDof_[cell]	1.538985547	vibrationalT_[cell]	6701.695477
totalelDof	0	electronicT_[cell]	0
degreesOfFreedomSpecies[i]	1.548072507
totalvDof_[cell]	1.548072507	vibrationalT_[cell]	6849.802583
totalelDof	0	electronicT_[cell]	0
degreesOfFreedomSpecies[i]	1.55604439
totalvDof_[cell]	1.55604439	vibrationalT_[cell]	6984.686579
totalelDof	0	electronicT_[cell]	0
degreesOfFreedomSpecies[i]	1.564042392
totalvDof_[cell]	1.564042392	vibrationalT_[cell]	7124.930636
totalelDof	0	electronicT_[cell]	0
degreesOfFreedomSpecies[i]	1.571911446
totalvDof_[cell]	1.571911446	vibrationalT_[cell]	7267.989257
totalelDof	0	electronicT_[cell]	0
degreesOfFreedomSpecies[i]	1.579705441
totalvDof_[cell]	1.579705441	vibrationalT_[cell]	7414.925561
totalelDof	0	electronicT_[cell]	0
degreesOfFreedomSpecies[i]	1.586682929
totalvDof_[cell]	1.586682929	vibrationalT_[cell]	7551.137267
totalelDof	0	electronicT_[cell]	0
degreesOfFreedomSpecies[i]	1.59379378
totalvDof_[cell]	1.59379378	vibrationalT_[cell]	7694.734911
totalelDof	0	electronicT_[cell]	0
degreesOfFreedomSpecies[i]	1.600899774
totalvDof_[cell]	1.600899774	vibrationalT_[cell]	7843.313583
totalelDof	0	electronicT_[cell]	0
degreesOfFreedomSpecies[i]	1.605898439
totalvDof_[cell]	1.605898439	vibrationalT_[cell]	7951.020748
totalelDof	0	electronicT_[cell]	0
degreesOfFreedomSpecies[i]	1.611265544
totalvDof_[cell]	1.611265544	vibrationalT_[cell]	8069.732262
totalelDof	0	electronicT_[cell]	0
degreesOfFreedomSpecies[i]	1.616181005
totalvDof_[cell]	1.616181005	vibrationalT_[cell]	8181.350097
totalelDof	0	electronicT_[cell]	0
degreesOfFreedomSpecies[i]	1.620976894
totalvDof_[cell]	1.620976894	vibrationalT_[cell]	8293.027504
totalelDof	0	electronicT_[cell]	0
degreesOfFreedomSpecies[i]	1.625431253
totalvDof_[cell]	1.625431253	vibrationalT_[cell]	8399.299716
totalelDof	0	electronicT_[cell]	0
degreesOfFreedomSpecies[i]	1.629851684
totalvDof_[cell]	1.629851684	vibrationalT_[cell]	8507.277779
totalelDof	0	electronicT_[cell]	0
degreesOfFreedomSpecies[i]	1.634891307
totalvDof_[cell]	1.634891307	vibrationalT_[cell]	8633.554176
totalelDof	0	electronicT_[cell]	0
degreesOfFreedomSpecies[i]	1.638423686
totalvDof_[cell]	1.638423686	vibrationalT_[cell]	8724.151914
totalelDof	0	electronicT_[cell]	0
degreesOfFreedomSpecies[i]	1.641832212
totalvDof_[cell]	1.641832212	vibrationalT_[cell]	8813.259001
totalelDof	0	electronicT_[cell]	0
degreesOfFreedomSpecies[i]	1.645679549
totalvDof_[cell]	1.645679549	vibrationalT_[cell]	8915.887615
totalelDof	0	electronicT_[cell]	0
degreesOfFreedomSpecies[i]	1.648702418
totalvDof_[cell]	1.648702418	vibrationalT_[cell]	8998.093028
totalelDof	0	electronicT_[cell]	0
degreesOfFreedomSpecies[i]	1.652420237
totalvDof_[cell]	1.652420237	vibrationalT_[cell]	9101.149133
totalelDof	0	electronicT_[cell]	0
degreesOfFreedomSpecies[i]	1.655850937
totalvDof_[cell]	1.655850937	vibrationalT_[cell]	9198.21303
totalelDof	0	electronicT_[cell]	0
degreesOfFreedomSpecies[i]	1.658443855
totalvDof_[cell]	1.658443855	vibrationalT_[cell]	9272.861963
totalelDof	0	electronicT_[cell]	0
degreesOfFreedomSpecies[i]	1.661249821
totalvDof_[cell]	1.661249821	vibrationalT_[cell]	9354.926472
totalelDof	0	electronicT_[cell]	0
degreesOfFreedomSpecies[i]	1.664341323
totalvDof_[cell]	1.664341323	vibrationalT_[cell]	9446.923858
totalelDof	0	electronicT_[cell]	0
degreesOfFreedomSpecies[i]	1.667344202
totalvDof_[cell]	1.667344202	vibrationalT_[cell]	9537.914457
totalelDof	0	electronicT_[cell]	0
degreesOfFreedomSpecies[i]	1.670088691
totalvDof_[cell]	1.670088691	vibrationalT_[cell]	9622.518498
totalelDof	0	electronicT_[cell]	0
degreesOfFreedomSpecies[i]	1.672683385
totalvDof_[cell]	1.672683385	vibrationalT_[cell]	9703.804448
totalelDof	0	electronicT_[cell]	0
degreesOfFreedomSpecies[i]	1.67475998
totalvDof_[cell]	1.67475998	vibrationalT_[cell]	9769.790262
totalelDof	0	electronicT_[cell]	0
degreesOfFreedomSpecies[i]	1.677211272
totalvDof_[cell]	1.677211272	vibrationalT_[cell]	9848.770978
totalelDof	0	electronicT_[cell]	0
degreesOfFreedomSpecies[i]	1.67861647
totalvDof_[cell]	1.67861647	vibrationalT_[cell]	9894.587734
totalelDof	0	electronicT_[cell]	0
degreesOfFreedomSpecies[i]	1.680558665
totalvDof_[cell]	1.680558665	vibrationalT_[cell]	9958.574577
totalelDof	0	electronicT_[cell]	0
degreesOfFreedomSpecies[i]	1.683223239
totalvDof_[cell]	1.683223239	vibrationalT_[cell]	10047.63261
totalelDof	0	electronicT_[cell]	0
degreesOfFreedomSpecies[i]	1.684991213
totalvDof_[cell]	1.684991213	vibrationalT_[cell]	10107.55212
totalelDof	0	electronicT_[cell]	0
degreesOfFreedomSpecies[i]	1.687295227
totalvDof_[cell]	1.687295227	vibrationalT_[cell]	10186.65216
totalelDof	0	electronicT_[cell]	0
degreesOfFreedomSpecies[i]	1.689572363
totalvDof_[cell]	1.689572363	vibrationalT_[cell]	10265.97912
totalelDof	0	electronicT_[cell]	0
degreesOfFreedomSpecies[i]	1.691085764
totalvDof_[cell]	1.691085764	vibrationalT_[cell]	10319.34512
totalelDof	0	electronicT_[cell]	0
degreesOfFreedomSpecies[i]	1.692960323
totalvDof_[cell]	1.692960323	vibrationalT_[cell]	10386.17327
totalelDof	0	electronicT_[cell]	0
degreesOfFreedomSpecies[i]	1.694701565
totalvDof_[cell]	1.694701565	vibrationalT_[cell]	10448.98146
totalelDof	0	electronicT_[cell]	0
degreesOfFreedomSpecies[i]	1.696143842
totalvDof_[cell]	1.696143842	vibrationalT_[cell]	10501.54896
totalelDof	0	electronicT_[cell]	0
degreesOfFreedomSpecies[i]	1.697065782
totalvDof_[cell]	1.697065782	vibrationalT_[cell]	10535.41282
totalelDof	0	electronicT_[cell]	0
degreesOfFreedomSpecies[i]	1.698848205
totalvDof_[cell]	1.698848205	vibrationalT_[cell]	10601.46922
totalelDof	0	electronicT_[cell]	0
degreesOfFreedomSpecies[i]	1.700337237
totalvDof_[cell]	1.700337237	vibrationalT_[cell]	10657.2531
totalelDof	0	electronicT_[cell]	0
degreesOfFreedomSpecies[i]	1.701992898
totalvDof_[cell]	1.701992898	vibrationalT_[cell]	10719.93193
totalelDof	0	electronicT_[cell]	0
degreesOfFreedomSpecies[i]	1.703324416
totalvDof_[cell]	1.703324416	vibrationalT_[cell]	10770.84554
totalelDof	0	electronicT_[cell]	0
degreesOfFreedomSpecies[i]	1.704536115
totalvDof_[cell]	1.704536115	vibrationalT_[cell]	10817.5752
totalelDof	0	electronicT_[cell]	0
degreesOfFreedomSpecies[i]	1.705858846
totalvDof_[cell]	1.705858846	vibrationalT_[cell]	10869.02504
totalelDof	0	electronicT_[cell]	0
degreesOfFreedomSpecies[i]	1.707447009
totalvDof_[cell]	1.707447009	vibrationalT_[cell]	10931.41208
totalelDof	0	electronicT_[cell]	0
degreesOfFreedomSpecies[i]	1.708814478
totalvDof_[cell]	1.708814478	vibrationalT_[cell]	10985.67336
totalelDof	0	electronicT_[cell]	0
degreesOfFreedomSpecies[i]	1.710202079
totalvDof_[cell]	1.710202079	vibrationalT_[cell]	11041.25538
totalelDof	0	electronicT_[cell]	0
degreesOfFreedomSpecies[i]	1.711517912
totalvDof_[cell]	1.711517912	vibrationalT_[cell]	11094.45513
totalelDof	0	electronicT_[cell]	0
degreesOfFreedomSpecies[i]	1.712783657
totalvDof_[cell]	1.712783657	vibrationalT_[cell]	11146.08843
totalelDof	0	electronicT_[cell]	0
degreesOfFreedomSpecies[i]	1.714239482
totalvDof_[cell]	1.714239482	vibrationalT_[cell]	11206.03965
totalelDof	0	electronicT_[cell]	0
degreesOfFreedomSpecies[i]	1.715317785
totalvDof_[cell]	1.715317785	vibrationalT_[cell]	11250.83856
totalelDof	0	electronicT_[cell]	0
degreesOfFreedomSpecies[i]	1.716061019
totalvDof_[cell]	1.716061019	vibrationalT_[cell]	11281.91432
totalelDof	0	electronicT_[cell]	0
degreesOfFreedomSpecies[i]	1.71740591
totalvDof_[cell]	1.71740591	vibrationalT_[cell]	11338.56065
totalelDof	0	electronicT_[cell]	0
degreesOfFreedomSpecies[i]	1.718773822
totalvDof_[cell]	1.718773822	vibrationalT_[cell]	11396.73087
totalelDof	0	electronicT_[cell]	0
degreesOfFreedomSpecies[i]	1.719253769
totalvDof_[cell]	1.719253769	vibrationalT_[cell]	11417.27449
totalelDof	0	electronicT_[cell]	0
degreesOfFreedomSpecies[i]	1.720334529
totalvDof_[cell]	1.720334529	vibrationalT_[cell]	11463.79276
totalelDof	0	electronicT_[cell]	0
degreesOfFreedomSpecies[i]	1.720998534
totalvDof_[cell]	1.720998534	vibrationalT_[cell]	11492.55123
totalelDof	0	electronicT_[cell]	0
degreesOfFreedomSpecies[i]	1.722088368
totalvDof_[cell]	1.722088368	vibrationalT_[cell]	11540.04969
totalelDof	0	electronicT_[cell]	0
degreesOfFreedomSpecies[i]	1.723218945
totalvDof_[cell]	1.723218945	vibrationalT_[cell]	11589.7181
totalelDof	0	electronicT_[cell]	0
degreesOfFreedomSpecies[i]	1.723788056
totalvDof_[cell]	1.723788056	vibrationalT_[cell]	11614.87368
totalelDof	0	electronicT_[cell]	0
degreesOfFreedomSpecies[i]	1.72488428
totalvDof_[cell]	1.72488428	vibrationalT_[cell]	11663.62105
totalelDof	0	electronicT_[cell]	0
degreesOfFreedomSpecies[i]	1.725645543
totalvDof_[cell]	1.725645543	vibrationalT_[cell]	11697.70179
totalelDof	0	electronicT_[cell]	0
degreesOfFreedomSpecies[i]	1.726620472
totalvDof_[cell]	1.726620472	vibrationalT_[cell]	11741.62455
totalelDof	0	electronicT_[cell]	0
degreesOfFreedomSpecies[i]	1.727271298
totalvDof_[cell]	1.727271298	vibrationalT_[cell]	11771.12009
totalelDof	0	electronicT_[cell]	0
degreesOfFreedomSpecies[i]	1.728069139
totalvDof_[cell]	1.728069139	vibrationalT_[cell]	11807.47052
totalelDof	0	electronicT_[cell]	0
degreesOfFreedomSpecies[i]	1.72920744
totalvDof_[cell]	1.72920744	vibrationalT_[cell]	11859.70252
totalelDof	0	electronicT_[cell]	0
degreesOfFreedomSpecies[i]	1.730036422
totalvDof_[cell]	1.730036422	vibrationalT_[cell]	11898.01759
totalelDof	0	electronicT_[cell]	0
degreesOfFreedomSpecies[i]	1.730714736
totalvDof_[cell]	1.730714736	vibrationalT_[cell]	11929.54399
totalelDof	0	electronicT_[cell]	0
degreesOfFreedomSpecies[i]	1.731050795
totalvDof_[cell]	1.731050795	vibrationalT_[cell]	11945.22194
totalelDof	0	electronicT_[cell]	0
degreesOfFreedomSpecies[i]	1.731687136
totalvDof_[cell]	1.731687136	vibrationalT_[cell]	11975.01607
totalelDof	0	electronicT_[cell]	0
degreesOfFreedomSpecies[i]	1.732480118
totalvDof_[cell]	1.732480118	vibrationalT_[cell]	12012.3422
totalelDof	0	electronicT_[cell]	0
degreesOfFreedomSpecies[i]	1.733159041
totalvDof_[cell]	1.733159041	vibrationalT_[cell]	12044.47538
totalelDof	0	electronicT_[cell]	0
degreesOfFreedomSpecies[i]	1.733694993
totalvDof_[cell]	1.733694993	vibrationalT_[cell]	12069.95719
totalelDof	0	electronicT_[cell]	0
degreesOfFreedomSpecies[i]	1.734283394
totalvDof_[cell]	1.734283394	vibrationalT_[cell]	12098.05083
totalelDof	0	electronicT_[cell]	0
degreesOfFreedomSpecies[i]	1.73513787
totalvDof_[cell]	1.73513787	vibrationalT_[cell]	12139.0701
totalelDof	0	electronicT_[cell]	0
Time = 5e-07

    Collisions                      = 25322

degreesOfFreedomSpecies[i]	1.735705864
totalvDof_[cell]	1.735705864	vibrationalT_[cell]	12166.48315
totalelDof	0	electronicT_[cell]	0
    Number of DSMC particles        = 99999
    Number of stuck particles       = 0
    Number of free particles        = 99999
    Average linear kinetic energy   = 3.249797843e-19
    Average rotational energy       = 2.188524555e-19
    Average vibrational energy      = 1.457789411e-19
    Average electronic energy       = 0
    Total energy                    = 6.896042848e-11

Stage 1.0  ExecutionTime = 95.45 s  ClockTime = 95 s  Iteration 100 (0.92 s)

degreesOfFreedomSpecies[i]	1.736300748
totalvDof_[cell]	1.736300748	vibrationalT_[cell]	12195.32028
totalelDof	0	electronicT_[cell]	0
degreesOfFreedomSpecies[i]	1.737224801
totalvDof_[cell]	1.737224801	vibrationalT_[cell]	12240.37233
totalelDof	0	electronicT_[cell]	0
degreesOfFreedomSpecies[i]	1.7379915
totalvDof_[cell]	1.7379915	vibrationalT_[cell]	12277.99325
totalelDof	0	electronicT_[cell]	0
degreesOfFreedomSpecies[i]	1.738875645
totalvDof_[cell]	1.738875645	vibrationalT_[cell]	12321.6507
totalelDof	0	electronicT_[cell]	0
degreesOfFreedomSpecies[i]	1.739410626
totalvDof_[cell]	1.739410626	vibrationalT_[cell]	12348.21059
totalelDof	0	electronicT_[cell]	0
degreesOfFreedomSpecies[i]	1.739851706
totalvDof_[cell]	1.739851706	vibrationalT_[cell]	12370.19065
totalelDof	0	electronicT_[cell]	0
degreesOfFreedomSpecies[i]	1.740444927
totalvDof_[cell]	1.740444927	vibrationalT_[cell]	12399.86974
totalelDof	0	electronicT_[cell]	0
degreesOfFreedomSpecies[i]	1.741120249
totalvDof_[cell]	1.741120249	vibrationalT_[cell]	12433.82156
totalelDof	0	electronicT_[cell]	0
degreesOfFreedomSpecies[i]	1.741269543
totalvDof_[cell]	1.741269543	vibrationalT_[cell]	12441.35118
totalelDof	0	electronicT_[cell]	0
degreesOfFreedomSpecies[i]	1.741688255
totalvDof_[cell]	1.741688255	vibrationalT_[cell]	12462.51522
totalelDof	0	electronicT_[cell]	0
degreesOfFreedomSpecies[i]	1.742000729
totalvDof_[cell]	1.742000729	vibrationalT_[cell]	12478.35404
totalelDof	0	electronicT_[cell]	0
degreesOfFreedomSpecies[i]	1.742395086
totalvDof_[cell]	1.742395086	vibrationalT_[cell]	12498.39811
totalelDof	0	electronicT_[cell]	0
degreesOfFreedomSpecies[i]	1.74301055
totalvDof_[cell]	1.74301055	vibrationalT_[cell]	12529.8031
totalelDof	0	electronicT_[cell]	0
degreesOfFreedomSpecies[i]	1.743109969
totalvDof_[cell]	1.743109969	vibrationalT_[cell]	12534.89022
totalelDof	0	electronicT_[cell]	0
degreesOfFreedomSpecies[i]	1.743787932
totalvDof_[cell]	1.743787932	vibrationalT_[cell]	12569.6854
totalelDof	0	electronicT_[cell]	0
degreesOfFreedomSpecies[i]	1.744143314
totalvDof_[cell]	1.744143314	vibrationalT_[cell]	12587.99819
totalelDof	0	electronicT_[cell]	0
degreesOfFreedomSpecies[i]	1.744505571
totalvDof_[cell]	1.744505571	vibrationalT_[cell]	12606.7176
totalelDof	0	electronicT_[cell]	0
degreesOfFreedomSpecies[i]	1.744828893
totalvDof_[cell]	1.744828893	vibrationalT_[cell]	12623.46983
totalelDof	0	electronicT_[cell]	0
degreesOfFreedomSpecies[i]	1.74515661
totalvDof_[cell]	1.74515661	vibrationalT_[cell]	12640.49309
totalelDof	0	electronicT_[cell]	0
degreesOfFreedomSpecies[i]	1.745651151
totalvDof_[cell]	1.745651151	vibrationalT_[cell]	12666.26484
totalelDof	0	electronicT_[cell]	0
degreesOfFreedomSpecies[i]	1.746313794
totalvDof_[cell]	1.746313794	vibrationalT_[cell]	12700.95399
totalelDof	0	electronicT_[cell]	0
degreesOfFreedomSpecies[i]	1.746856599
totalvDof_[cell]	1.746856599	vibrationalT_[cell]	12729.50473
totalelDof	0	electronicT_[cell]	0
degreesOfFreedomSpecies[i]	1.747485439
totalvDof_[cell]	1.747485439	vibrationalT_[cell]	12762.73387
totalelDof	0	electronicT_[cell]	0
degreesOfFreedomSpecies[i]	1.747738653
totalvDof_[cell]	1.747738653	vibrationalT_[cell]	12776.16087
totalelDof	0	electronicT_[cell]	0
degreesOfFreedomSpecies[i]	1.748011756
totalvDof_[cell]	1.748011756	vibrationalT_[cell]	12790.6727
totalelDof	0	electronicT_[cell]	0
degreesOfFreedomSpecies[i]	1.748652611
totalvDof_[cell]	1.748652611	vibrationalT_[cell]	12824.84934
totalelDof	0	electronicT_[cell]	0
degreesOfFreedomSpecies[i]	1.74891424
totalvDof_[cell]	1.74891424	vibrationalT_[cell]	12838.85196
totalelDof	0	electronicT_[cell]	0
degreesOfFreedomSpecies[i]	1.749406869
totalvDof_[cell]	1.749406869	vibrationalT_[cell]	12865.29712
totalelDof	0	electronicT_[cell]	0
degreesOfFreedomSpecies[i]	1.749523426
totalvDof_[cell]	1.749523426	vibrationalT_[cell]	12871.56927
totalelDof	0	electronicT_[cell]	0
degreesOfFreedomSpecies[i]	1.749886887
totalvDof_[cell]	1.749886887	vibrationalT_[cell]	12891.1653
totalelDof	0	electronicT_[cell]	0
degreesOfFreedomSpecies[i]	1.750386328
totalvDof_[cell]	1.750386328	vibrationalT_[cell]	12918.18557
totalelDof	0	electronicT_[cell]	0
degreesOfFreedomSpecies[i]	1.750798404
totalvDof_[cell]	1.750798404	vibrationalT_[cell]	12940.56071
totalelDof	0	electronicT_[cell]	0
degreesOfFreedomSpecies[i]	1.751554059
totalvDof_[cell]	1.751554059	vibrationalT_[cell]	12981.78407
totalelDof	0	electronicT_[cell]	0
degreesOfFreedomSpecies[i]	1.751617235
totalvDof_[cell]	1.751617235	vibrationalT_[cell]	12985.24189
totalelDof	0	electronicT_[cell]	0
degreesOfFreedomSpecies[i]	1.752204714
totalvDof_[cell]	1.752204714	vibrationalT_[cell]	13017.48042
totalelDof	0	electronicT_[cell]	0
degreesOfFreedomSpecies[i]	1.752656237
totalvDof_[cell]	1.752656237	vibrationalT_[cell]	13042.36212
totalelDof	0	electronicT_[cell]	0
degreesOfFreedomSpecies[i]	1.752937755
totalvDof_[cell]	1.752937755	vibrationalT_[cell]	13057.9214
totalelDof	0	electronicT_[cell]	0
degreesOfFreedomSpecies[i]	1.753124464
totalvDof_[cell]	1.753124464	vibrationalT_[cell]	13068.26023
totalelDof	0	electronicT_[cell]	0
degreesOfFreedomSpecies[i]	1.753551909
totalvDof_[cell]	1.753551909	vibrationalT_[cell]	13091.98837
totalelDof	0	electronicT_[cell]	0
degreesOfFreedomSpecies[i]	1.753988804
totalvDof_[cell]	1.753988804	vibrationalT_[cell]	13116.32616
totalelDof	0	electronicT_[cell]	0
degreesOfFreedomSpecies[i]	1.75424365
totalvDof_[cell]	1.75424365	vibrationalT_[cell]	13130.56252
totalelDof	0	electronicT_[cell]	0
degreesOfFreedomSpecies[i]	1.754336354
totalvDof_[cell]	1.754336354	vibrationalT_[cell]	13135.74858
totalelDof	0	electronicT_[cell]	0
degreesOfFreedomSpecies[i]	1.754250317
totalvDof_[cell]	1.754250317	vibrationalT_[cell]	13130.93538
totalelDof	0	electronicT_[cell]	0
degreesOfFreedomSpecies[i]	1.754596522
totalvDof_[cell]	1.754596522	vibrationalT_[cell]	13150.32367
totalelDof	0	electronicT_[cell]	0
degreesOfFreedomSpecies[i]	1.755022484
totalvDof_[cell]	1.755022484	vibrationalT_[cell]	13174.25354
totalelDof	0	electronicT_[cell]	0
degreesOfFreedomSpecies[i]	1.755263164
totalvDof_[cell]	1.755263164	vibrationalT_[cell]	13187.81133
totalelDof	0	electronicT_[cell]	0
degreesOfFreedomSpecies[i]	1.755470369
totalvDof_[cell]	1.755470369	vibrationalT_[cell]	13199.5048
totalelDof	0	electronicT_[cell]	0
degreesOfFreedomSpecies[i]	1.755917212
totalvDof_[cell]	1.755917212	vibrationalT_[cell]	13224.78944
totalelDof	0	electronicT_[cell]	0
degreesOfFreedomSpecies[i]	1.755959654
totalvDof_[cell]	1.755959654	vibrationalT_[cell]	13227.19586
totalelDof	0	electronicT_[cell]	0
degreesOfFreedomSpecies[i]	1.756207438
totalvDof_[cell]	1.756207438	vibrationalT_[cell]	13241.26145
totalelDof	0	electronicT_[cell]	0
degreesOfFreedomSpecies[i]	1.75680303
totalvDof_[cell]	1.75680303	vibrationalT_[cell]	13275.18768
totalelDof	0	electronicT_[cell]	0
degreesOfFreedomSpecies[i]	1.756925831
totalvDof_[cell]	1.756925831	vibrationalT_[cell]	13282.20327
totalelDof	0	electronicT_[cell]	0
degreesOfFreedomSpecies[i]	1.757423466
totalvDof_[cell]	1.757423466	vibrationalT_[cell]	13310.70585
totalelDof	0	electronicT_[cell]	0
degreesOfFreedomSpecies[i]	1.75763645
totalvDof_[cell]	1.75763645	vibrationalT_[cell]	13322.9404
totalelDof	0	electronicT_[cell]	0
degreesOfFreedomSpecies[i]	1.757728371
totalvDof_[cell]	1.757728371	vibrationalT_[cell]	13328.22732
totalelDof	0	electronicT_[cell]	0
degreesOfFreedomSpecies[i]	1.757944934
totalvDof_[cell]	1.757944934	vibrationalT_[cell]	13340.69893
totalelDof	0	electronicT_[cell]	0
degreesOfFreedomSpecies[i]	1.75838334
totalvDof_[cell]	1.75838334	vibrationalT_[cell]	13366.01457
totalelDof	0	electronicT_[cell]	0
degreesOfFreedomSpecies[i]	1.758083025
totalvDof_[cell]	1.758083025	vibrationalT_[cell]	13348.66308
totalelDof	0	electronicT_[cell]	0
degreesOfFreedomSpecies[i]	1.758040733
totalvDof_[cell]	1.758040733	vibrationalT_[cell]	13346.223
totalelDof	0	electronicT_[cell]	0
degreesOfFreedomSpecies[i]	1.758051895
totalvDof_[cell]	1.758051895	vibrationalT_[cell]	13346.86691
totalelDof	0	electronicT_[cell]	0
degreesOfFreedomSpecies[i]	1.758382754
totalvDof_[cell]	1.758382754	vibrationalT_[cell]	13365.98068
totalelDof	0	electronicT_[cell]	0
degreesOfFreedomSpecies[i]	1.758532632
totalvDof_[cell]	1.758532632	vibrationalT_[cell]	13374.65634
totalelDof	0	electronicT_[cell]	0
degreesOfFreedomSpecies[i]	1.758658362
totalvDof_[cell]	1.758658362	vibrationalT_[cell]	13381.94249
totalelDof	0	electronicT_[cell]	0
degreesOfFreedomSpecies[i]	1.758741914
totalvDof_[cell]	1.758741914	vibrationalT_[cell]	13386.7886
totalelDof	0	electronicT_[cell]	0
degreesOfFreedomSpecies[i]	1.759146583
totalvDof_[cell]	1.759146583	vibrationalT_[cell]	13410.30725
totalelDof	0	electronicT_[cell]	0
degreesOfFreedomSpecies[i]	1.759243756
totalvDof_[cell]	1.759243756	vibrationalT_[cell]	13415.96657
totalelDof	0	electronicT_[cell]	0
degreesOfFreedomSpecies[i]	1.759506951
totalvDof_[cell]	1.759506951	vibrationalT_[cell]	13431.31777
totalelDof	0	electronicT_[cell]	0
degreesOfFreedomSpecies[i]	1.759613691
totalvDof_[cell]	1.759613691	vibrationalT_[cell]	13437.55309
totalelDof	0	electronicT_[cell]	0
degreesOfFreedomSpecies[i]	1.759903844
totalvDof_[cell]	1.759903844	vibrationalT_[cell]	13454.53061
totalelDof	0	electronicT_[cell]	0
degreesOfFreedomSpecies[i]	1.760232528
totalvDof_[cell]	1.760232528	vibrationalT_[cell]	13473.8122
totalelDof	0	electronicT_[cell]	0
degreesOfFreedomSpecies[i]	1.760357641
totalvDof_[cell]	1.760357641	vibrationalT_[cell]	13481.16556
totalelDof	0	electronicT_[cell]	0
degreesOfFreedomSpecies[i]	1.7605419
totalvDof_[cell]	1.7605419	vibrationalT_[cell]	13492.00915
totalelDof	0	electronicT_[cell]	0
degreesOfFreedomSpecies[i]	1.760907845
totalvDof_[cell]	1.760907845	vibrationalT_[cell]	13513.59439
totalelDof	0	electronicT_[cell]	0
degreesOfFreedomSpecies[i]	1.761258945
totalvDof_[cell]	1.761258945	vibrationalT_[cell]	13534.36604
totalelDof	0	electronicT_[cell]	0
degreesOfFreedomSpecies[i]	1.761663171
totalvDof_[cell]	1.761663171	vibrationalT_[cell]	13558.35638
totalelDof	0	electronicT_[cell]	0
degreesOfFreedomSpecies[i]	1.761992157
totalvDof_[cell]	1.761992157	vibrationalT_[cell]	13577.94139
totalelDof	0	electronicT_[cell]	0
degreesOfFreedomSpecies[i]	1.76226127
totalvDof_[cell]	1.76226127	vibrationalT_[cell]	13594.00224
totalelDof	0	electronicT_[cell]	0
degreesOfFreedomSpecies[i]	1.762273745
totalvDof_[cell]	1.762273745	vibrationalT_[cell]	13594.74767
totalelDof	0	electronicT_[cell]	0
degreesOfFreedomSpecies[i]	1.762699961
totalvDof_[cell]	1.762699961	vibrationalT_[cell]	13620.26164
totalelDof	0	electronicT_[cell]	0
degreesOfFreedomSpecies[i]	1.762978745
totalvDof_[cell]	1.762978745	vibrationalT_[cell]	13636.99962
totalelDof	0	electronicT_[cell]	0
degreesOfFreedomSpecies[i]	1.762947739
totalvDof_[cell]	1.762947739	vibrationalT_[cell]	13635.13609
totalelDof	0	electronicT_[cell]	0
degreesOfFreedomSpecies[i]	1.762991145
totalvDof_[cell]	1.762991145	vibrationalT_[cell]	13637.74503
totalelDof	0	electronicT_[cell]	0
degreesOfFreedomSpecies[i]	1.763147726
totalvDof_[cell]	1.763147726	vibrationalT_[cell]	13647.16429
totalelDof	0	electronicT_[cell]	0
degreesOfFreedomSpecies[i]	1.763627438
totalvDof_[cell]	1.763627438	vibrationalT_[cell]	13676.09928
totalelDof	0	electronicT_[cell]	0
degreesOfFreedomSpecies[i]	1.763620711
totalvDof_[cell]	1.763620711	vibrationalT_[cell]	13675.6927
totalelDof	0	electronicT_[cell]	0
degreesOfFreedomSpecies[i]	1.763791574
totalvDof_[cell]	1.763791574	vibrationalT_[cell]	13686.02648
totalelDof	0	electronicT_[cell]	0
degreesOfFreedomSpecies[i]	1.763895651
totalvDof_[cell]	1.763895651	vibrationalT_[cell]	13692.32835
totalelDof	0	electronicT_[cell]	0
degreesOfFreedomSpecies[i]	1.764161022
totalvDof_[cell]	1.764161022	vibrationalT_[cell]	13708.42171
totalelDof	0	electronicT_[cell]	0
degreesOfFreedomSpecies[i]	1.764474782
totalvDof_[cell]	1.764474782	vibrationalT_[cell]	13727.49633
totalelDof	0	electronicT_[cell]	0
degreesOfFreedomSpecies[i]	1.764119161
totalvDof_[cell]	1.764119161	vibrationalT_[cell]	13705.88067
totalelDof	0	electronicT_[cell]	0
degreesOfFreedomSpecies[i]	1.763898448
totalvDof_[cell]	1.763898448	vibrationalT_[cell]	13692.49776
totalelDof	0	electronicT_[cell]	0
degreesOfFreedomSpecies[i]	1.76393871
totalvDof_[cell]	1.76393871	vibrationalT_[cell]	13694.93718
totalelDof	0	electronicT_[cell]	0
degreesOfFreedomSpecies[i]	1.764081753
totalvDof_[cell]	1.764081753	vibrationalT_[cell]	13703.61066
totalelDof	0	electronicT_[cell]	0
degreesOfFreedomSpecies[i]	1.763993489
totalvDof_[cell]	1.763993489	vibrationalT_[cell]	13698.25751
totalelDof	0	electronicT_[cell]	0
degreesOfFreedomSpecies[i]	1.764359519
totalvDof_[cell]	1.764359519	vibrationalT_[cell]	13720.48313
totalelDof	0	electronicT_[cell]	0
degreesOfFreedomSpecies[i]	1.764411318
totalvDof_[cell]	1.764411318	vibrationalT_[cell]	13723.63399
totalelDof	0	electronicT_[cell]	0
degreesOfFreedomSpecies[i]	1.764669416
totalvDof_[cell]	1.764669416	vibrationalT_[cell]	13739.35431
totalelDof	0	electronicT_[cell]	0
degreesOfFreedomSpecies[i]	1.764811017
totalvDof_[cell]	1.764811017	vibrationalT_[cell]	13747.99362
totalelDof	0	electronicT_[cell]	0
degreesOfFreedomSpecies[i]	1.764918076
totalvDof_[cell]	1.764918076	vibrationalT_[cell]	13754.53237
totalelDof	0	electronicT_[cell]	0
Time = 1e-06

    Collisions                      = 24850

degreesOfFreedomSpecies[i]	1.765103672
totalvDof_[cell]	1.765103672	vibrationalT_[cell]	13765.88192
totalelDof	0	electronicT_[cell]	0
    Number of DSMC particles        = 99999
    Number of stuck particles       = 0
    Number of free particles        = 99999
    Average linear kinetic energy   = 3.130787256e-19
    Average rotational energy       = 2.08795846e-19
    Average vibrational energy      = 1.677366094e-19
    Average electronic energy       = 0
    Total energy                    = 6.896042848e-11

Stage 1.0  ExecutionTime = 187.76 s  ClockTime = 188 s  Iteration 200 (0.92 s)

degreesOfFreedomSpecies[i]	1.765501019
totalvDof_[cell]	1.765501019	vibrationalT_[cell]	13790.2408
totalelDof	0	electronicT_[cell]	0
degreesOfFreedomSpecies[i]	1.765583193
totalvDof_[cell]	1.765583193	vibrationalT_[cell]	13795.2887
totalelDof	0	electronicT_[cell]	0
degreesOfFreedomSpecies[i]	1.76548226
totalvDof_[cell]	1.76548226	vibrationalT_[cell]	13789.08893
totalelDof	0	electronicT_[cell]	0
degreesOfFreedomSpecies[i]	1.765711579
totalvDof_[cell]	1.765711579	vibrationalT_[cell]	13803.18234
totalelDof	0	electronicT_[cell]	0
degreesOfFreedomSpecies[i]	1.766115099
totalvDof_[cell]	1.766115099	vibrationalT_[cell]	13828.04873
totalelDof	0	electronicT_[cell]	0
degreesOfFreedomSpecies[i]	1.766302092
totalvDof_[cell]	1.766302092	vibrationalT_[cell]	13839.60095
totalelDof	0	electronicT_[cell]	0
degreesOfFreedomSpecies[i]	1.766530353
totalvDof_[cell]	1.766530353	vibrationalT_[cell]	13853.72773
totalelDof	0	electronicT_[cell]	0
degreesOfFreedomSpecies[i]	1.766824733
totalvDof_[cell]	1.766824733	vibrationalT_[cell]	13871.98731
totalelDof	0	electronicT_[cell]	0
degreesOfFreedomSpecies[i]	1.766864
totalvDof_[cell]	1.766864	vibrationalT_[cell]	13874.42642
totalelDof	0	electronicT_[cell]	0
degreesOfFreedomSpecies[i]	1.767204847
totalvDof_[cell]	1.767204847	vibrationalT_[cell]	13895.63295
totalelDof	0	electronicT_[cell]	0
degreesOfFreedomSpecies[i]	1.767648732
totalvDof_[cell]	1.767648732	vibrationalT_[cell]	13923.34324
totalelDof	0	electronicT_[cell]	0
degreesOfFreedomSpecies[i]	1.767854901
totalvDof_[cell]	1.767854901	vibrationalT_[cell]	13936.24968
totalelDof	0	electronicT_[cell]	0
degreesOfFreedomSpecies[i]	1.768241355
totalvDof_[cell]	1.768241355	vibrationalT_[cell]	13960.50399
totalelDof	0	electronicT_[cell]	0
degreesOfFreedomSpecies[i]	1.768419574
totalvDof_[cell]	1.768419574	vibrationalT_[cell]	13971.71639
totalelDof	0	electronicT_[cell]	0
degreesOfFreedomSpecies[i]	1.768718319
totalvDof_[cell]	1.768718319	vibrationalT_[cell]	13990.55031
totalelDof	0	electronicT_[cell]	0
degreesOfFreedomSpecies[i]	1.768715099
totalvDof_[cell]	1.768715099	vibrationalT_[cell]	13990.34707
totalelDof	0	electronicT_[cell]	0
degreesOfFreedomSpecies[i]	1.768783768
totalvDof_[cell]	1.768783768	vibrationalT_[cell]	13994.6829
totalelDof	0	electronicT_[cell]	0
degreesOfFreedomSpecies[i]	1.768855611
totalvDof_[cell]	1.768855611	vibrationalT_[cell]	13999.22197
totalelDof	0	electronicT_[cell]	0
degreesOfFreedomSpecies[i]	1.769178353
totalvDof_[cell]	1.769178353	vibrationalT_[cell]	14019.64757
totalelDof	0	electronicT_[cell]	0
degreesOfFreedomSpecies[i]	1.769226446
totalvDof_[cell]	1.769226446	vibrationalT_[cell]	14022.69614
totalelDof	0	electronicT_[cell]	0
degreesOfFreedomSpecies[i]	1.769287335
totalvDof_[cell]	1.769287335	vibrationalT_[cell]	14026.55766
totalelDof	0	electronicT_[cell]	0
degreesOfFreedomSpecies[i]	1.769365268
totalvDof_[cell]	1.769365268	vibrationalT_[cell]	14031.50309
totalelDof	0	electronicT_[cell]	0
degreesOfFreedomSpecies[i]	1.769560936
totalvDof_[cell]	1.769560936	vibrationalT_[cell]	14043.93435
totalelDof	0	electronicT_[cell]	0
degreesOfFreedomSpecies[i]	1.76976212
totalvDof_[cell]	1.76976212	vibrationalT_[cell]	14056.7381
totalelDof	0	electronicT_[cell]	0
degreesOfFreedomSpecies[i]	1.769924726
totalvDof_[cell]	1.769924726	vibrationalT_[cell]	14067.10296
totalelDof	0	electronicT_[cell]	0
degreesOfFreedomSpecies[i]	1.770035124
totalvDof_[cell]	1.770035124	vibrationalT_[cell]	14074.14831
totalelDof	0	electronicT_[cell]	0
degreesOfFreedomSpecies[i]	1.770069602
totalvDof_[cell]	1.770069602	vibrationalT_[cell]	14076.34998
totalelDof	0	electronicT_[cell]	0
degreesOfFreedomSpecies[i]	1.770114672
totalvDof_[cell]	1.770114672	vibrationalT_[cell]	14079.22907
totalelDof	0	electronicT_[cell]	0
degreesOfFreedomSpecies[i]	1.770092404
totalvDof_[cell]	1.770092404	vibrationalT_[cell]	14077.80646
totalelDof	0	electronicT_[cell]	0
degreesOfFreedomSpecies[i]	1.770196284
totalvDof_[cell]	1.770196284	vibrationalT_[cell]	14084.44531
totalelDof	0	electronicT_[cell]	0
degreesOfFreedomSpecies[i]	1.770043612
totalvDof_[cell]	1.770043612	vibrationalT_[cell]	14074.69026
totalelDof	0	electronicT_[cell]	0
degreesOfFreedomSpecies[i]	1.770069602
totalvDof_[cell]	1.770069602	vibrationalT_[cell]	14076.34998
totalelDof	0	electronicT_[cell]	0
degreesOfFreedomSpecies[i]	1.770333938
totalvDof_[cell]	1.770333938	vibrationalT_[cell]	14093.25189
totalelDof	0	electronicT_[cell]	0
degreesOfFreedomSpecies[i]	1.770293718
totalvDof_[cell]	1.770293718	vibrationalT_[cell]	14090.67766
totalelDof	0	electronicT_[cell]	0
degreesOfFreedomSpecies[i]	1.770523736
totalvDof_[cell]	1.770523736	vibrationalT_[cell]	14105.41166
totalelDof	0	electronicT_[cell]	0
degreesOfFreedomSpecies[i]	1.770655721
totalvDof_[cell]	1.770655721	vibrationalT_[cell]	14113.87941
totalelDof	0	electronicT_[cell]	0
degreesOfFreedomSpecies[i]	1.770556482
totalvDof_[cell]	1.770556482	vibrationalT_[cell]	14107.51166
totalelDof	0	electronicT_[cell]	0
degreesOfFreedomSpecies[i]	1.770702143
totalvDof_[cell]	1.770702143	vibrationalT_[cell]	14116.86004
totalelDof	0	electronicT_[cell]	0
degreesOfFreedomSpecies[i]	1.770608751
totalvDof_[cell]	1.770608751	vibrationalT_[cell]	14110.86489
totalelDof	0	electronicT_[cell]	0
degreesOfFreedomSpecies[i]	1.770781756
totalvDof_[cell]	1.770781756	vibrationalT_[cell]	14121.97453
totalelDof	0	electronicT_[cell]	0
degreesOfFreedomSpecies[i]	1.771032884
totalvDof_[cell]	1.771032884	vibrationalT_[cell]	14138.13077
totalelDof	0	electronicT_[cell]	0
degreesOfFreedomSpecies[i]	1.770996591
totalvDof_[cell]	1.770996591	vibrationalT_[cell]	14135.79371
totalelDof	0	electronicT_[cell]	0
degreesOfFreedomSpecies[i]	1.77082602
totalvDof_[cell]	1.77082602	vibrationalT_[cell]	14124.81966
totalelDof	0	electronicT_[cell]	0
degreesOfFreedomSpecies[i]	1.770752764
totalvDof_[cell]	1.770752764	vibrationalT_[cell]	14120.11164
totalelDof	0	electronicT_[cell]	0
degreesOfFreedomSpecies[i]	1.770902387
totalvDof_[cell]	1.770902387	vibrationalT_[cell]	14129.7309
totalelDof	0	electronicT_[cell]	0
degreesOfFreedomSpecies[i]	1.770595026
totalvDof_[cell]	1.770595026	vibrationalT_[cell]	14109.98425
totalelDof	0	electronicT_[cell]	0
degreesOfFreedomSpecies[i]	1.770917655
totalvDof_[cell]	1.770917655	vibrationalT_[cell]	14130.71315
totalelDof	0	electronicT_[cell]	0
degreesOfFreedomSpecies[i]	1.77122415
totalvDof_[cell]	1.77122415	vibrationalT_[cell]	14150.45952
totalelDof	0	electronicT_[cell]	0
degreesOfFreedomSpecies[i]	1.771237799
totalvDof_[cell]	1.771237799	vibrationalT_[cell]	14151.34014
totalelDof	0	electronicT_[cell]	0
degreesOfFreedomSpecies[i]	1.771166909
totalvDof_[cell]	1.771166909	vibrationalT_[cell]	14146.76768
totalelDof	0	electronicT_[cell]	0
degreesOfFreedomSpecies[i]	1.771063382
totalvDof_[cell]	1.771063382	vibrationalT_[cell]	14140.09525
totalelDof	0	electronicT_[cell]	0
degreesOfFreedomSpecies[i]	1.770817063
totalvDof_[cell]	1.770817063	vibrationalT_[cell]	14124.24386
totalelDof	0	electronicT_[cell]	0
degreesOfFreedomSpecies[i]	1.770917655
totalvDof_[cell]	1.770917655	vibrationalT_[cell]	14130.71315
totalelDof	0	electronicT_[cell]	0
degreesOfFreedomSpecies[i]	1.77108441
totalvDof_[cell]	1.77108441	vibrationalT_[cell]	14141.45006
totalelDof	0	electronicT_[cell]	0
degreesOfFreedomSpecies[i]	1.770986596
totalvDof_[cell]	1.770986596	vibrationalT_[cell]	14135.15018
totalelDof	0	electronicT_[cell]	0
degreesOfFreedomSpecies[i]	1.77125932
totalvDof_[cell]	1.77125932	vibrationalT_[cell]	14152.72882
totalelDof	0	electronicT_[cell]	0
degreesOfFreedomSpecies[i]	1.771407757
totalvDof_[cell]	1.771407757	vibrationalT_[cell]	14162.314
totalelDof	0	electronicT_[cell]	0
degreesOfFreedomSpecies[i]	1.771590022
totalvDof_[cell]	1.771590022	vibrationalT_[cell]	14174.10064
totalelDof	0	electronicT_[cell]	0
degreesOfFreedomSpecies[i]	1.772050666
totalvDof_[cell]	1.772050666	vibrationalT_[cell]	14203.97327
totalelDof	0	electronicT_[cell]	0
degreesOfFreedomSpecies[i]	1.772252198
totalvDof_[cell]	1.772252198	vibrationalT_[cell]	14217.08047
totalelDof	0	electronicT_[cell]	0
degreesOfFreedomSpecies[i]	1.772180896
totalvDof_[cell]	1.772180896	vibrationalT_[cell]	14212.44046
totalelDof	0	electronicT_[cell]	0
degreesOfFreedomSpecies[i]	1.772119446
totalvDof_[cell]	1.772119446	vibrationalT_[cell]	14208.44396
totalelDof	0	electronicT_[cell]	0
degreesOfFreedomSpecies[i]	1.772192349
totalvDof_[cell]	1.772192349	vibrationalT_[cell]	14213.18558
totalelDof	0	electronicT_[cell]	0
degreesOfFreedomSpecies[i]	1.772395188
totalvDof_[cell]	1.772395188	vibrationalT_[cell]	14226.39429
totalelDof	0	electronicT_[cell]	0
degreesOfFreedomSpecies[i]	1.772442465
totalvDof_[cell]	1.772442465	vibrationalT_[cell]	14229.47631
totalelDof	0	electronicT_[cell]	0
degreesOfFreedomSpecies[i]	1.772433115
totalvDof_[cell]	1.772433115	vibrationalT_[cell]	14228.86668
totalelDof	0	electronicT_[cell]	0
degreesOfFreedomSpecies[i]	1.77243779
totalvDof_[cell]	1.77243779	vibrationalT_[cell]	14229.1715
totalelDof	0	electronicT_[cell]	0
degreesOfFreedomSpecies[i]	1.77261893
totalvDof_[cell]	1.77261893	vibrationalT_[cell]	14240.99149
totalelDof	0	electronicT_[cell]	0
degreesOfFreedomSpecies[i]	1.772887254
totalvDof_[cell]	1.772887254	vibrationalT_[cell]	14258.53503
totalelDof	0	electronicT_[cell]	0
degreesOfFreedomSpecies[i]	1.773042363
totalvDof_[cell]	1.773042363	vibrationalT_[cell]	14268.69529
totalelDof	0	electronicT_[cell]	0
degreesOfFreedomSpecies[i]	1.772996369
totalvDof_[cell]	1.772996369	vibrationalT_[cell]	14265.68109
totalelDof	0	electronicT_[cell]	0
degreesOfFreedomSpecies[i]	1.773189004
totalvDof_[cell]	1.773189004	vibrationalT_[cell]	14278.31361
totalelDof	0	electronicT_[cell]	0
degreesOfFreedomSpecies[i]	1.773499214
totalvDof_[cell]	1.773499214	vibrationalT_[cell]	14298.70153
totalelDof	0	electronicT_[cell]	0
degreesOfFreedomSpecies[i]	1.773185392
totalvDof_[cell]	1.773185392	vibrationalT_[cell]	14278.07654
totalelDof	0	electronicT_[cell]	0
degreesOfFreedomSpecies[i]	1.772901739
totalvDof_[cell]	1.772901739	vibrationalT_[cell]	14259.48332
totalelDof	0	electronicT_[cell]	0
degreesOfFreedomSpecies[i]	1.772957079
totalvDof_[cell]	1.772957079	vibrationalT_[cell]	14263.10715
totalelDof	0	electronicT_[cell]	0
degreesOfFreedomSpecies[i]	1.773156491
totalvDof_[cell]	1.773156491	vibrationalT_[cell]	14276.17997
totalelDof	0	electronicT_[cell]	0
degreesOfFreedomSpecies[i]	1.773081107
totalvDof_[cell]	1.773081107	vibrationalT_[cell]	14271.23534
totalelDof	0	electronicT_[cell]	0
degreesOfFreedomSpecies[i]	1.77337822
totalvDof_[cell]	1.77337822	vibrationalT_[cell]	14290.74282
totalelDof	0	electronicT_[cell]	0
degreesOfFreedomSpecies[i]	1.773627274
totalvDof_[cell]	1.773627274	vibrationalT_[cell]	14307.13434
totalelDof	0	electronicT_[cell]	0
degreesOfFreedomSpecies[i]	1.773701781
totalvDof_[cell]	1.773701781	vibrationalT_[cell]	14312.04498
totalelDof	0	electronicT_[cell]	0
degreesOfFreedomSpecies[i]	1.773832177
totalvDof_[cell]	1.773832177	vibrationalT_[cell]	14320.64704
totalelDof	0	electronicT_[cell]	0
degreesOfFreedomSpecies[i]	1.773896294
totalvDof_[cell]	1.773896294	vibrationalT_[cell]	14324.88032
totalelDof	0	electronicT_[cell]	0
degreesOfFreedomSpecies[i]	1.773593859
totalvDof_[cell]	1.773593859	vibrationalT_[cell]	14304.93301
totalelDof	0	electronicT_[cell]	0
degreesOfFreedomSpecies[i]	1.774032099
totalvDof_[cell]	1.774032099	vibrationalT_[cell]	14333.85484
totalelDof	0	electronicT_[cell]	0
degreesOfFreedomSpecies[i]	1.774393619
totalvDof_[cell]	1.774393619	vibrationalT_[cell]	14357.79791
totalelDof	0	electronicT_[cell]	0
degreesOfFreedomSpecies[i]	1.774460988
totalvDof_[cell]	1.774460988	vibrationalT_[cell]	14362.26815
totalelDof	0	electronicT_[cell]	0
degreesOfFreedomSpecies[i]	1.774477824
totalvDof_[cell]	1.774477824	vibrationalT_[cell]	14363.38571
totalelDof	0	electronicT_[cell]	0
degreesOfFreedomSpecies[i]	1.774347152
totalvDof_[cell]	1.774347152	vibrationalT_[cell]	14354.71615
totalelDof	0	electronicT_[cell]	0
degreesOfFreedomSpecies[i]	1.774526787
totalvDof_[cell]	1.774526787	vibrationalT_[cell]	14366.63678
totalelDof	0	electronicT_[cell]	0
degreesOfFreedomSpecies[i]	1.774379834
totalvDof_[cell]	1.774379834	vibrationalT_[cell]	14356.88354
totalelDof	0	electronicT_[cell]	0
degreesOfFreedomSpecies[i]	1.774334383
totalvDof_[cell]	1.774334383	vibrationalT_[cell]	14353.86951
totalelDof	0	electronicT_[cell]	0
degreesOfFreedomSpecies[i]	1.774239847
totalvDof_[cell]	1.774239847	vibrationalT_[cell]	14347.60437
totalelDof	0	electronicT_[cell]	0
degreesOfFreedomSpecies[i]	1.77428738
totalvDof_[cell]	1.77428738	vibrationalT_[cell]	14350.75388
totalelDof	0	electronicT_[cell]	0
degreesOfFreedomSpecies[i]	1.774532906
totalvDof_[cell]	1.774532906	vibrationalT_[cell]	14367.04316
totalelDof	0	electronicT_[cell]	0
degreesOfFreedomSpecies[i]	1.774699008
totalvDof_[cell]	1.774699008	vibrationalT_[cell]	14378.0832
totalelDof	0	electronicT_[cell]	0
degreesOfFreedomSpecies[i]	1.774853679
totalvDof_[cell]	1.774853679	vibrationalT_[cell]	14388.37814
totalelDof	0	electronicT_[cell]	0
degreesOfFreedomSpecies[i]	1.774898412
totalvDof_[cell]	1.774898412	vibrationalT_[cell]	14391.35824
totalelDof	0	electronicT_[cell]	0
degreesOfFreedomSpecies[i]	1.775257159
totalvDof_[cell]	1.775257159	vibrationalT_[cell]	14415.30044
totalelDof	0	electronicT_[cell]	0
Time = 1.5e-06

    Collisions                      = 24709

degreesOfFreedomSpecies[i]	1.775379186
totalvDof_[cell]	1.775379186	vibrationalT_[cell]	14423.4617
totalelDof	0	electronicT_[cell]	0
    Number of DSMC particles        = 99999
    Number of stuck particles       = 0
    Number of free particles        = 99999
    Average linear kinetic energy   = 3.080874834e-19
    Average rotational energy       = 2.0475139e-19
    Average vibrational energy      = 1.767723076e-19
    Average electronic energy       = 0
    Total energy                    = 6.896042848e-11

Stage 1.0  ExecutionTime = 280.18 s  ClockTime = 280 s  Iteration 300 (0.94 s)

degreesOfFreedomSpecies[i]	1.775203446
totalvDof_[cell]	1.775203446	vibrationalT_[cell]	14411.71082
totalelDof	0	electronicT_[cell]	0
degreesOfFreedomSpecies[i]	1.77521561
totalvDof_[cell]	1.77521561	vibrationalT_[cell]	14412.52357
totalelDof	0	electronicT_[cell]	0
degreesOfFreedomSpecies[i]	1.775361979
totalvDof_[cell]	1.775361979	vibrationalT_[cell]	14422.31032
totalelDof	0	electronicT_[cell]	0
degreesOfFreedomSpecies[i]	1.775428769
totalvDof_[cell]	1.775428769	vibrationalT_[cell]	14426.78037
totalelDof	0	electronicT_[cell]	0
degreesOfFreedomSpecies[i]	1.77510558
totalvDof_[cell]	1.77510558	vibrationalT_[cell]	14405.175
totalelDof	0	electronicT_[cell]	0
degreesOfFreedomSpecies[i]	1.775048749
totalvDof_[cell]	1.775048749	vibrationalT_[cell]	14401.38217
totalelDof	0	electronicT_[cell]	0
degreesOfFreedomSpecies[i]	1.774891805
totalvDof_[cell]	1.774891805	vibrationalT_[cell]	14390.918
totalelDof	0	electronicT_[cell]	0
degreesOfFreedomSpecies[i]	1.775121813
totalvDof_[cell]	1.775121813	vibrationalT_[cell]	14406.25866
totalelDof	0	electronicT_[cell]	0
degreesOfFreedomSpecies[i]	1.774989857
totalvDof_[cell]	1.774989857	vibrationalT_[cell]	14397.45388
totalelDof	0	electronicT_[cell]	0
degreesOfFreedomSpecies[i]	1.775059407
totalvDof_[cell]	1.775059407	vibrationalT_[cell]	14402.09333
totalelDof	0	electronicT_[cell]	0
degreesOfFreedomSpecies[i]	1.775173031
totalvDof_[cell]	1.775173031	vibrationalT_[cell]	14409.67896
totalelDof	0	electronicT_[cell]	0
degreesOfFreedomSpecies[i]	1.775186212
totalvDof_[cell]	1.775186212	vibrationalT_[cell]	14410.55944
totalelDof	0	electronicT_[cell]	0
degreesOfFreedomSpecies[i]	1.775171003
totalvDof_[cell]	1.775171003	vibrationalT_[cell]	14409.54351
totalelDof	0	electronicT_[cell]	0
degreesOfFreedomSpecies[i]	1.775153763
totalvDof_[cell]	1.775153763	vibrationalT_[cell]	14408.39212
totalelDof	0	electronicT_[cell]	0
degreesOfFreedomSpecies[i]	1.775130942
totalvDof_[cell]	1.775130942	vibrationalT_[cell]	14406.86822
totalelDof	0	electronicT_[cell]	0
degreesOfFreedomSpecies[i]	1.775324012
totalvDof_[cell]	1.775324012	vibrationalT_[cell]	14419.77051
totalelDof	0	electronicT_[cell]	0
degreesOfFreedomSpecies[i]	1.77563395
totalvDof_[cell]	1.77563395	vibrationalT_[cell]	14440.5291
totalelDof	0	electronicT_[cell]	0
degreesOfFreedomSpecies[i]	1.775676354
totalvDof_[cell]	1.775676354	vibrationalT_[cell]	14443.37364
totalelDof	0	electronicT_[cell]	0
degreesOfFreedomSpecies[i]	1.775681401
totalvDof_[cell]	1.775681401	vibrationalT_[cell]	14443.71228
totalelDof	0	electronicT_[cell]	0
degreesOfFreedomSpecies[i]	1.776101022
totalvDof_[cell]	1.776101022	vibrationalT_[cell]	14471.92044
totalelDof	0	electronicT_[cell]	0
degreesOfFreedomSpecies[i]	1.776343611
totalvDof_[cell]	1.776343611	vibrationalT_[cell]	14488.2762
totalelDof	0	electronicT_[cell]	0
degreesOfFreedomSpecies[i]	1.776252765
totalvDof_[cell]	1.776252765	vibrationalT_[cell]	14482.14704
totalelDof	0	electronicT_[cell]	0
degreesOfFreedomSpecies[i]	1.776225145
totalvDof_[cell]	1.776225145	vibrationalT_[cell]	14480.28458
totalelDof	0	electronicT_[cell]	0
degreesOfFreedomSpecies[i]	1.775931449
totalvDof_[cell]	1.775931449	vibrationalT_[cell]	14460.50855
totalelDof	0	electronicT_[cell]	0
degreesOfFreedomSpecies[i]	1.77597072
totalvDof_[cell]	1.77597072	vibrationalT_[cell]	14463.14989
totalelDof	0	electronicT_[cell]	0
degreesOfFreedomSpecies[i]	1.776040166
totalvDof_[cell]	1.776040166	vibrationalT_[cell]	14467.823
totalelDof	0	electronicT_[cell]	0
degreesOfFreedomSpecies[i]	1.77589972
totalvDof_[cell]	1.77589972	vibrationalT_[cell]	14458.37517
totalelDof	0	electronicT_[cell]	0
degreesOfFreedomSpecies[i]	1.775896194
totalvDof_[cell]	1.775896194	vibrationalT_[cell]	14458.13812
totalelDof	0	electronicT_[cell]	0
degreesOfFreedomSpecies[i]	1.776210076
totalvDof_[cell]	1.776210076	vibrationalT_[cell]	14479.2687
totalelDof	0	electronicT_[cell]	0
degreesOfFreedomSpecies[i]	1.775963169
totalvDof_[cell]	1.775963169	vibrationalT_[cell]	14462.64194
totalelDof	0	electronicT_[cell]	0
degreesOfFreedomSpecies[i]	1.775864959
totalvDof_[cell]	1.775864959	vibrationalT_[cell]	14456.03859
totalelDof	0	electronicT_[cell]	0
degreesOfFreedomSpecies[i]	1.775955114
totalvDof_[cell]	1.775955114	vibrationalT_[cell]	14462.10013
totalelDof	0	electronicT_[cell]	0
degreesOfFreedomSpecies[i]	1.776223638
totalvDof_[cell]	1.776223638	vibrationalT_[cell]	14480.183
totalelDof	0	electronicT_[cell]	0
degreesOfFreedomSpecies[i]	1.776235691
totalvDof_[cell]	1.776235691	vibrationalT_[cell]	14480.9957
totalelDof	0	electronicT_[cell]	0
degreesOfFreedomSpecies[i]	1.776284394
totalvDof_[cell]	1.776284394	vibrationalT_[cell]	14484.2804
totalelDof	0	electronicT_[cell]	0
degreesOfFreedomSpecies[i]	1.776411321
totalvDof_[cell]	1.776411321	vibrationalT_[cell]	14492.84766
totalelDof	0	electronicT_[cell]	0
degreesOfFreedomSpecies[i]	1.776221127
totalvDof_[cell]	1.776221127	vibrationalT_[cell]	14480.01368
totalelDof	0	electronicT_[cell]	0
degreesOfFreedomSpecies[i]	1.775978271
totalvDof_[cell]	1.775978271	vibrationalT_[cell]	14463.65783
totalelDof	0	electronicT_[cell]	0
degreesOfFreedomSpecies[i]	1.776340099
totalvDof_[cell]	1.776340099	vibrationalT_[cell]	14488.03916
totalelDof	0	electronicT_[cell]	0
degreesOfFreedomSpecies[i]	1.77659068
totalvDof_[cell]	1.77659068	vibrationalT_[cell]	14504.97042
totalelDof	0	electronicT_[cell]	0
degreesOfFreedomSpecies[i]	1.776551125
totalvDof_[cell]	1.776551125	vibrationalT_[cell]	14502.29529
totalelDof	0	electronicT_[cell]	0
degreesOfFreedomSpecies[i]	1.776573658
totalvDof_[cell]	1.776573658	vibrationalT_[cell]	14503.8191
totalelDof	0	electronicT_[cell]	0
degreesOfFreedomSpecies[i]	1.776490515
totalvDof_[cell]	1.776490515	vibrationalT_[cell]	14498.19794
totalelDof	0	electronicT_[cell]	0
degreesOfFreedomSpecies[i]	1.776490515
totalvDof_[cell]	1.776490515	vibrationalT_[cell]	14498.19794
totalelDof	0	electronicT_[cell]	0
degreesOfFreedomSpecies[i]	1.776605196
totalvDof_[cell]	1.776605196	vibrationalT_[cell]	14505.95243
totalelDof	0	electronicT_[cell]	0
degreesOfFreedomSpecies[i]	1.776651236
totalvDof_[cell]	1.776651236	vibrationalT_[cell]	14509.06776
totalelDof	0	electronicT_[cell]	0
degreesOfFreedomSpecies[i]	1.776881647
totalvDof_[cell]	1.776881647	vibrationalT_[cell]	14524.67818
totalelDof	0	electronicT_[cell]	0
degreesOfFreedomSpecies[i]	1.776914096
totalvDof_[cell]	1.776914096	vibrationalT_[cell]	14526.8792
totalelDof	0	electronicT_[cell]	0
degreesOfFreedomSpecies[i]	1.776759253
totalvDof_[cell]	1.776759253	vibrationalT_[cell]	14516.38199
totalelDof	0	electronicT_[cell]	0
degreesOfFreedomSpecies[i]	1.776663243
totalvDof_[cell]	1.776663243	vibrationalT_[cell]	14509.88045
totalelDof	0	electronicT_[cell]	0
degreesOfFreedomSpecies[i]	1.776626717
totalvDof_[cell]	1.776626717	vibrationalT_[cell]	14507.40851
totalelDof	0	electronicT_[cell]	0
degreesOfFreedomSpecies[i]	1.776680251
totalvDof_[cell]	1.776680251	vibrationalT_[cell]	14511.03177
totalelDof	0	electronicT_[cell]	0
degreesOfFreedomSpecies[i]	1.776895626
totalvDof_[cell]	1.776895626	vibrationalT_[cell]	14525.62631
totalelDof	0	electronicT_[cell]	0
degreesOfFreedomSpecies[i]	1.777386281
totalvDof_[cell]	1.777386281	vibrationalT_[cell]	14558.97995
totalelDof	0	electronicT_[cell]	0
degreesOfFreedomSpecies[i]	1.777256979
totalvDof_[cell]	1.777256979	vibrationalT_[cell]	14550.17601
totalelDof	0	electronicT_[cell]	0
degreesOfFreedomSpecies[i]	1.777376837
totalvDof_[cell]	1.777376837	vibrationalT_[cell]	14558.33658
totalelDof	0	electronicT_[cell]	0
degreesOfFreedomSpecies[i]	1.77731021
totalvDof_[cell]	1.77731021	vibrationalT_[cell]	14553.79917
totalelDof	0	electronicT_[cell]	0
degreesOfFreedomSpecies[i]	1.777456837
totalvDof_[cell]	1.777456837	vibrationalT_[cell]	14563.78823
totalelDof	0	electronicT_[cell]	0
degreesOfFreedomSpecies[i]	1.777378329
totalvDof_[cell]	1.777378329	vibrationalT_[cell]	14558.43817
totalelDof	0	electronicT_[cell]	0
degreesOfFreedomSpecies[i]	1.777249514
totalvDof_[cell]	1.777249514	vibrationalT_[cell]	14549.66809
totalelDof	0	electronicT_[cell]	0
degreesOfFreedomSpecies[i]	1.777263447
totalvDof_[cell]	1.777263447	vibrationalT_[cell]	14550.61621
totalelDof	0	electronicT_[cell]	0
degreesOfFreedomSpecies[i]	1.777185798
totalvDof_[cell]	1.777185798	vibrationalT_[cell]	14545.33382
totalelDof	0	electronicT_[cell]	0
degreesOfFreedomSpecies[i]	1.777331098
totalvDof_[cell]	1.777331098	vibrationalT_[cell]	14555.22135
totalelDof	0	electronicT_[cell]	0
degreesOfFreedomSpecies[i]	1.777416596
totalvDof_[cell]	1.777416596	vibrationalT_[cell]	14561.04548
totalelDof	0	electronicT_[cell]	0
degreesOfFreedomSpecies[i]	1.77758938
totalvDof_[cell]	1.77758938	vibrationalT_[cell]	14572.82912
totalelDof	0	electronicT_[cell]	0
degreesOfFreedomSpecies[i]	1.777429018
totalvDof_[cell]	1.777429018	vibrationalT_[cell]	14561.89201
totalelDof	0	electronicT_[cell]	0
degreesOfFreedomSpecies[i]	1.777709871
totalvDof_[cell]	1.777709871	vibrationalT_[cell]	14581.05731
totalelDof	0	electronicT_[cell]	0
degreesOfFreedomSpecies[i]	1.777247026
totalvDof_[cell]	1.777247026	vibrationalT_[cell]	14549.49878
totalelDof	0	electronicT_[cell]	0
degreesOfFreedomSpecies[i]	1.777637493
totalvDof_[cell]	1.777637493	vibrationalT_[cell]	14576.11363
totalelDof	0	electronicT_[cell]	0
degreesOfFreedomSpecies[i]	1.77786191
totalvDof_[cell]	1.77786191	vibrationalT_[cell]	14591.45253
totalelDof	0	electronicT_[cell]	0
degreesOfFreedomSpecies[i]	1.777921777
totalvDof_[cell]	1.777921777	vibrationalT_[cell]	14595.54965
totalelDof	0	electronicT_[cell]	0
degreesOfFreedomSpecies[i]	1.777775268
totalvDof_[cell]	1.777775268	vibrationalT_[cell]	14585.52692
totalelDof	0	electronicT_[cell]	0
degreesOfFreedomSpecies[i]	1.777694507
totalvDof_[cell]	1.777694507	vibrationalT_[cell]	14580.00762
totalelDof	0	electronicT_[cell]	0
degreesOfFreedomSpecies[i]	1.777865869
totalvDof_[cell]	1.777865869	vibrationalT_[cell]	14591.72341
totalelDof	0	electronicT_[cell]	0
degreesOfFreedomSpecies[i]	1.777571022
totalvDof_[cell]	1.777571022	vibrationalT_[cell]	14571.57627
totalelDof	0	electronicT_[cell]	0
degreesOfFreedomSpecies[i]	1.777761895
totalvDof_[cell]	1.777761895	vibrationalT_[cell]	14584.61268
totalelDof	0	electronicT_[cell]	0
degreesOfFreedomSpecies[i]	1.777731675
totalvDof_[cell]	1.777731675	vibrationalT_[cell]	14582.54718
totalelDof	0	electronicT_[cell]	0
degreesOfFreedomSpecies[i]	1.777920787
totalvDof_[cell]	1.777920787	vibrationalT_[cell]	14595.48193
totalelDof	0	electronicT_[cell]	0
degreesOfFreedomSpecies[i]	1.777973206
totalvDof_[cell]	1.777973206	vibrationalT_[cell]	14599.07113
totalelDof	0	electronicT_[cell]	0
degreesOfFreedomSpecies[i]	1.777997924
totalvDof_[cell]	1.777997924	vibrationalT_[cell]	14600.76415
totalelDof	0	electronicT_[cell]	0
degreesOfFreedomSpecies[i]	1.778094763
totalvDof_[cell]	1.778094763	vibrationalT_[cell]	14607.40076
totalelDof	0	electronicT_[cell]	0
degreesOfFreedomSpecies[i]	1.778278326
totalvDof_[cell]	1.778278326	vibrationalT_[cell]	14619.99671
totalelDof	0	electronicT_[cell]	0
degreesOfFreedomSpecies[i]	1.77835275
totalvDof_[cell]	1.77835275	vibrationalT_[cell]	14625.10956
totalelDof	0	electronicT_[cell]	0
degreesOfFreedomSpecies[i]	1.778489639
totalvDof_[cell]	1.778489639	vibrationalT_[cell]	14634.52257
totalelDof	0	electronicT_[cell]	0
degreesOfFreedomSpecies[i]	1.778622917
totalvDof_[cell]	1.778622917	vibrationalT_[cell]	14643.69851
totalelDof	0	electronicT_[cell]	0
degreesOfFreedomSpecies[i]	1.778482257
totalvDof_[cell]	1.778482257	vibrationalT_[cell]	14634.01467
totalelDof	0	electronicT_[cell]	0
degreesOfFreedomSpecies[i]	1.778659282
totalvDof_[cell]	1.778659282	vibrationalT_[cell]	14646.20411
totalelDof	0	electronicT_[cell]	0
degreesOfFreedomSpecies[i]	1.778733941
totalvDof_[cell]	1.778733941	vibrationalT_[cell]	14651.35073
totalelDof	0	electronicT_[cell]	0
degreesOfFreedomSpecies[i]	1.778781559
totalvDof_[cell]	1.778781559	vibrationalT_[cell]	14654.63508
totalelDof	0	electronicT_[cell]	0
degreesOfFreedomSpecies[i]	1.778888991
totalvDof_[cell]	1.778888991	vibrationalT_[cell]	14662.05024
totalelDof	0	electronicT_[cell]	0
degreesOfFreedomSpecies[i]	1.779088371
totalvDof_[cell]	1.779088371	vibrationalT_[cell]	14675.83083
totalelDof	0	electronicT_[cell]	0
degreesOfFreedomSpecies[i]	1.779171055
totalvDof_[cell]	1.779171055	vibrationalT_[cell]	14681.55296
totalelDof	0	electronicT_[cell]	0
degreesOfFreedomSpecies[i]	1.779239503
totalvDof_[cell]	1.779239503	vibrationalT_[cell]	14686.29317
totalelDof	0	electronicT_[cell]	0
degreesOfFreedomSpecies[i]	1.779192083
totalvDof_[cell]	1.779192083	vibrationalT_[cell]	14683.00889
totalelDof	0	electronicT_[cell]	0
degreesOfFreedomSpecies[i]	1.779143174
totalvDof_[cell]	1.779143174	vibrationalT_[cell]	14679.62302
totalelDof	0	electronicT_[cell]	0
degreesOfFreedomSpecies[i]	1.779220439
totalvDof_[cell]	1.779220439	vibrationalT_[cell]	14684.97269
totalelDof	0	electronicT_[cell]	0
degreesOfFreedomSpecies[i]	1.77936309
totalvDof_[cell]	1.77936309	vibrationalT_[cell]	14694.85938
totalelDof	0	electronicT_[cell]	0
degreesOfFreedomSpecies[i]	1.779361137
totalvDof_[cell]	1.779361137	vibrationalT_[cell]	14694.72394
totalelDof	0	electronicT_[cell]	0
degreesOfFreedomSpecies[i]	1.779321584
totalvDof_[cell]	1.779321584	vibrationalT_[cell]	14691.98141
totalelDof	0	electronicT_[cell]	0
Time = 2e-06

    Collisions                      = 24735

degreesOfFreedomSpecies[i]	1.779563076
totalvDof_[cell]	1.779563076	vibrationalT_[cell]	14708.74128
totalelDof	0	electronicT_[cell]	0
    Number of DSMC particles        = 99999
    Number of stuck particles       = 0
    Number of free particles        = 99999
    Average linear kinetic energy   = 3.053054267e-19
    Average rotational energy       = 2.036122682e-19
    Average vibrational energy      = 1.80693486e-19
    Average electronic energy       = 0
    Total energy                    = 6.896042848e-11

Stage 1.0  ExecutionTime = 372.65 s  ClockTime = 373 s  Iteration 400 (0.91 s)

degreesOfFreedomSpecies[i]	1.779640047
totalvDof_[cell]	1.779640047	vibrationalT_[cell]	14714.09086
totalelDof	0	electronicT_[cell]	0
degreesOfFreedomSpecies[i]	1.779535782
totalvDof_[cell]	1.779535782	vibrationalT_[cell]	14706.84522
totalelDof	0	electronicT_[cell]	0
degreesOfFreedomSpecies[i]	1.779356255
totalvDof_[cell]	1.779356255	vibrationalT_[cell]	14694.38536
totalelDof	0	electronicT_[cell]	0
degreesOfFreedomSpecies[i]	1.779545531
totalvDof_[cell]	1.779545531	vibrationalT_[cell]	14707.52238
totalelDof	0	electronicT_[cell]	0
degreesOfFreedomSpecies[i]	1.779608388
totalvDof_[cell]	1.779608388	vibrationalT_[cell]	14711.89008
totalelDof	0	electronicT_[cell]	0
degreesOfFreedomSpecies[i]	1.779520183
totalvDof_[cell]	1.779520183	vibrationalT_[cell]	14705.76176
totalelDof	0	electronicT_[cell]	0
degreesOfFreedomSpecies[i]	1.779417757
totalvDof_[cell]	1.779417757	vibrationalT_[cell]	14698.65152
totalelDof	0	electronicT_[cell]	0
degreesOfFreedomSpecies[i]	1.779630794
totalvDof_[cell]	1.779630794	vibrationalT_[cell]	14713.44755
totalelDof	0	electronicT_[cell]	0
degreesOfFreedomSpecies[i]	1.779641995
totalvDof_[cell]	1.779641995	vibrationalT_[cell]	14714.22629
totalelDof	0	electronicT_[cell]	0
degreesOfFreedomSpecies[i]	1.779841474
totalvDof_[cell]	1.779841474	vibrationalT_[cell]	14728.10803
totalelDof	0	electronicT_[cell]	0
degreesOfFreedomSpecies[i]	1.779716477
totalvDof_[cell]	1.779716477	vibrationalT_[cell]	14719.40656
totalelDof	0	electronicT_[cell]	0
degreesOfFreedomSpecies[i]	1.779487027
totalvDof_[cell]	1.779487027	vibrationalT_[cell]	14703.4594
totalelDof	0	electronicT_[cell]	0
degreesOfFreedomSpecies[i]	1.779267847
totalvDof_[cell]	1.779267847	vibrationalT_[cell]	14688.25697
totalelDof	0	electronicT_[cell]	0
degreesOfFreedomSpecies[i]	1.779161273
totalvDof_[cell]	1.779161273	vibrationalT_[cell]	14680.87579
totalelDof	0	electronicT_[cell]	0
degreesOfFreedomSpecies[i]	1.778950264
totalvDof_[cell]	1.778950264	vibrationalT_[cell]	14666.28262
totalelDof	0	electronicT_[cell]	0
degreesOfFreedomSpecies[i]	1.779163229
totalvDof_[cell]	1.779163229	vibrationalT_[cell]	14681.01122
totalelDof	0	electronicT_[cell]	0
degreesOfFreedomSpecies[i]	1.779182792
totalvDof_[cell]	1.779182792	vibrationalT_[cell]	14682.36557
totalelDof	0	electronicT_[cell]	0
degreesOfFreedomSpecies[i]	1.778973784
totalvDof_[cell]	1.778973784	vibrationalT_[cell]	14667.90785
totalelDof	0	electronicT_[cell]	0
degreesOfFreedomSpecies[i]	1.779065366
totalvDof_[cell]	1.779065366	vibrationalT_[cell]	14674.23947
totalelDof	0	electronicT_[cell]	0
degreesOfFreedomSpecies[i]	1.778913505
totalvDof_[cell]	1.778913505	vibrationalT_[cell]	14663.74319
totalelDof	0	electronicT_[cell]	0
degreesOfFreedomSpecies[i]	1.778911544
totalvDof_[cell]	1.778911544	vibrationalT_[cell]	14663.60776
totalelDof	0	electronicT_[cell]	0
degreesOfFreedomSpecies[i]	1.779182792
totalvDof_[cell]	1.779182792	vibrationalT_[cell]	14682.36557
totalelDof	0	electronicT_[cell]	0
degreesOfFreedomSpecies[i]	1.778983093
totalvDof_[cell]	1.778983093	vibrationalT_[cell]	14668.55117
totalelDof	0	electronicT_[cell]	0
degreesOfFreedomSpecies[i]	1.778950264
totalvDof_[cell]	1.778950264	vibrationalT_[cell]	14666.28262
totalelDof	0	electronicT_[cell]	0
degreesOfFreedomSpecies[i]	1.779142196
totalvDof_[cell]	1.779142196	vibrationalT_[cell]	14679.5553
totalelDof	0	electronicT_[cell]	0
degreesOfFreedomSpecies[i]	1.778991911
totalvDof_[cell]	1.778991911	vibrationalT_[cell]	14669.16063
totalelDof	0	electronicT_[cell]	0
degreesOfFreedomSpecies[i]	1.77901885
totalvDof_[cell]	1.77901885	vibrationalT_[cell]	14671.02287
totalelDof	0	electronicT_[cell]	0
degreesOfFreedomSpecies[i]	1.778967905
totalvDof_[cell]	1.778967905	vibrationalT_[cell]	14667.50154
totalelDof	0	electronicT_[cell]	0
degreesOfFreedomSpecies[i]	1.778960065
totalvDof_[cell]	1.778960065	vibrationalT_[cell]	14666.9598
totalelDof	0	electronicT_[cell]	0
degreesOfFreedomSpecies[i]	1.779289834
totalvDof_[cell]	1.779289834	vibrationalT_[cell]	14689.78061
totalelDof	0	electronicT_[cell]	0
degreesOfFreedomSpecies[i]	1.779270291
totalvDof_[cell]	1.779270291	vibrationalT_[cell]	14688.42626
totalelDof	0	electronicT_[cell]	0
degreesOfFreedomSpecies[i]	1.77910599
totalvDof_[cell]	1.77910599	vibrationalT_[cell]	14677.04975
totalelDof	0	electronicT_[cell]	0
degreesOfFreedomSpecies[i]	1.778800698
totalvDof_[cell]	1.778800698	vibrationalT_[cell]	14655.95559
totalelDof	0	electronicT_[cell]	0
degreesOfFreedomSpecies[i]	1.778899288
totalvDof_[cell]	1.778899288	vibrationalT_[cell]	14662.76128
totalelDof	0	electronicT_[cell]	0
degreesOfFreedomSpecies[i]	1.779308397
totalvDof_[cell]	1.779308397	vibrationalT_[cell]	14691.06723
totalelDof	0	electronicT_[cell]	0
degreesOfFreedomSpecies[i]	1.779008075
totalvDof_[cell]	1.779008075	vibrationalT_[cell]	14670.27798
totalelDof	0	electronicT_[cell]	0
degreesOfFreedomSpecies[i]	1.778890462
totalvDof_[cell]	1.778890462	vibrationalT_[cell]	14662.15182
totalelDof	0	electronicT_[cell]	0
degreesOfFreedomSpecies[i]	1.779026685
totalvDof_[cell]	1.779026685	vibrationalT_[cell]	14671.56462
totalelDof	0	electronicT_[cell]	0
degreesOfFreedomSpecies[i]	1.779249766
totalvDof_[cell]	1.779249766	vibrationalT_[cell]	14687.0042
totalelDof	0	electronicT_[cell]	0
degreesOfFreedomSpecies[i]	1.779071729
totalvDof_[cell]	1.779071729	vibrationalT_[cell]	14674.67963
totalelDof	0	electronicT_[cell]	0
degreesOfFreedomSpecies[i]	1.779099628
totalvDof_[cell]	1.779099628	vibrationalT_[cell]	14676.60959
totalelDof	0	electronicT_[cell]	0
degreesOfFreedomSpecies[i]	1.779029624
totalvDof_[cell]	1.779029624	vibrationalT_[cell]	14671.76777
totalelDof	0	electronicT_[cell]	0
degreesOfFreedomSpecies[i]	1.778523588
totalvDof_[cell]	1.778523588	vibrationalT_[cell]	14636.85888
totalelDof	0	electronicT_[cell]	0
degreesOfFreedomSpecies[i]	1.778393145
totalvDof_[cell]	1.778393145	vibrationalT_[cell]	14627.88606
totalelDof	0	electronicT_[cell]	0
degreesOfFreedomSpecies[i]	1.778613086
totalvDof_[cell]	1.778613086	vibrationalT_[cell]	14643.02132
totalelDof	0	electronicT_[cell]	0
degreesOfFreedomSpecies[i]	1.778540313
totalvDof_[cell]	1.778540313	vibrationalT_[cell]	14638.01011
totalelDof	0	electronicT_[cell]	0
degreesOfFreedomSpecies[i]	1.778773706
totalvDof_[cell]	1.778773706	vibrationalT_[cell]	14654.09333
totalelDof	0	electronicT_[cell]	0
degreesOfFreedomSpecies[i]	1.778877713
totalvDof_[cell]	1.778877713	vibrationalT_[cell]	14661.27148
totalelDof	0	electronicT_[cell]	0
degreesOfFreedomSpecies[i]	1.779202351
totalvDof_[cell]	1.779202351	vibrationalT_[cell]	14683.71992
totalelDof	0	electronicT_[cell]	0
degreesOfFreedomSpecies[i]	1.779375295
totalvDof_[cell]	1.779375295	vibrationalT_[cell]	14695.70584
totalelDof	0	electronicT_[cell]	0
degreesOfFreedomSpecies[i]	1.77934063
totalvDof_[cell]	1.77934063	vibrationalT_[cell]	14693.30189
totalelDof	0	electronicT_[cell]	0
degreesOfFreedomSpecies[i]	1.779059491
totalvDof_[cell]	1.779059491	vibrationalT_[cell]	14673.83316
totalelDof	0	electronicT_[cell]	0
degreesOfFreedomSpecies[i]	1.778956145
totalvDof_[cell]	1.778956145	vibrationalT_[cell]	14666.68893
totalelDof	0	electronicT_[cell]	0
degreesOfFreedomSpecies[i]	1.7790355
totalvDof_[cell]	1.7790355	vibrationalT_[cell]	14672.17408
totalelDof	0	electronicT_[cell]	0
degreesOfFreedomSpecies[i]	1.778794319
totalvDof_[cell]	1.778794319	vibrationalT_[cell]	14655.51542
totalelDof	0	electronicT_[cell]	0
degreesOfFreedomSpecies[i]	1.778535394
totalvDof_[cell]	1.778535394	vibrationalT_[cell]	14637.67151
totalelDof	0	electronicT_[cell]	0
degreesOfFreedomSpecies[i]	1.778389205
totalvDof_[cell]	1.778389205	vibrationalT_[cell]	14627.61518
totalelDof	0	electronicT_[cell]	0
degreesOfFreedomSpecies[i]	1.778427617
totalvDof_[cell]	1.778427617	vibrationalT_[cell]	14630.25625
totalelDof	0	electronicT_[cell]	0
degreesOfFreedomSpecies[i]	1.778498988
totalvDof_[cell]	1.778498988	vibrationalT_[cell]	14635.1659
totalelDof	0	electronicT_[cell]	0
degreesOfFreedomSpecies[i]	1.778580639
totalvDof_[cell]	1.778580639	vibrationalT_[cell]	14640.78659
totalelDof	0	electronicT_[cell]	0
degreesOfFreedomSpecies[i]	1.778700547
totalvDof_[cell]	1.778700547	vibrationalT_[cell]	14649.0483
totalelDof	0	electronicT_[cell]	0
degreesOfFreedomSpecies[i]	1.778547691
totalvDof_[cell]	1.778547691	vibrationalT_[cell]	14638.518
totalelDof	0	electronicT_[cell]	0
degreesOfFreedomSpecies[i]	1.77870595
totalvDof_[cell]	1.77870595	vibrationalT_[cell]	14649.42075
totalelDof	0	electronicT_[cell]	0
degreesOfFreedomSpecies[i]	1.778784504
totalvDof_[cell]	1.778784504	vibrationalT_[cell]	14654.83824
totalelDof	0	electronicT_[cell]	0
degreesOfFreedomSpecies[i]	1.778680899
totalvDof_[cell]	1.778680899	vibrationalT_[cell]	14647.69392
totalelDof	0	electronicT_[cell]	0
degreesOfFreedomSpecies[i]	1.778741306
totalvDof_[cell]	1.778741306	vibrationalT_[cell]	14651.85862
totalelDof	0	electronicT_[cell]	0
degreesOfFreedomSpecies[i]	1.778907622
totalvDof_[cell]	1.778907622	vibrationalT_[cell]	14663.33688
totalelDof	0	electronicT_[cell]	0
degreesOfFreedomSpecies[i]	1.779066345
totalvDof_[cell]	1.779066345	vibrationalT_[cell]	14674.30719
totalelDof	0	electronicT_[cell]	0
degreesOfFreedomSpecies[i]	1.778717245
totalvDof_[cell]	1.778717245	vibrationalT_[cell]	14650.19951
totalelDof	0	electronicT_[cell]	0
degreesOfFreedomSpecies[i]	1.778767816
totalvDof_[cell]	1.778767816	vibrationalT_[cell]	14653.68702
totalelDof	0	electronicT_[cell]	0
degreesOfFreedomSpecies[i]	1.778742779
totalvDof_[cell]	1.778742779	vibrationalT_[cell]	14651.9602
totalelDof	0	electronicT_[cell]	0
degreesOfFreedomSpecies[i]	1.778884578
totalvDof_[cell]	1.778884578	vibrationalT_[cell]	14661.74551
totalelDof	0	electronicT_[cell]	0
degreesOfFreedomSpecies[i]	1.778787448
totalvDof_[cell]	1.778787448	vibrationalT_[cell]	14655.04139
totalelDof	0	electronicT_[cell]	0
degreesOfFreedomSpecies[i]	1.778560478
totalvDof_[cell]	1.778560478	vibrationalT_[cell]	14639.39835
totalelDof	0	electronicT_[cell]	0
degreesOfFreedomSpecies[i]	1.778517685
totalvDof_[cell]	1.778517685	vibrationalT_[cell]	14636.45257
totalelDof	0	electronicT_[cell]	0
degreesOfFreedomSpecies[i]	1.778566871
totalvDof_[cell]	1.778566871	vibrationalT_[cell]	14639.83853
totalelDof	0	electronicT_[cell]	0
degreesOfFreedomSpecies[i]	1.778671565
totalvDof_[cell]	1.778671565	vibrationalT_[cell]	14647.05059
totalelDof	0	electronicT_[cell]	0
degreesOfFreedomSpecies[i]	1.778445341
totalvDof_[cell]	1.778445341	vibrationalT_[cell]	14631.4752
totalelDof	0	electronicT_[cell]	0
degreesOfFreedomSpecies[i]	1.778545724
totalvDof_[cell]	1.778545724	vibrationalT_[cell]	14638.38256
totalelDof	0	electronicT_[cell]	0
degreesOfFreedomSpecies[i]	1.778844363
totalvDof_[cell]	1.778844363	vibrationalT_[cell]	14658.96906
totalelDof	0	electronicT_[cell]	0
degreesOfFreedomSpecies[i]	1.778835043
totalvDof_[cell]	1.778835043	vibrationalT_[cell]	14658.32573
totalelDof	0	electronicT_[cell]	0
degreesOfFreedomSpecies[i]	1.778823269
totalvDof_[cell]	1.778823269	vibrationalT_[cell]	14657.51311
totalelDof	0	electronicT_[cell]	0
degreesOfFreedomSpecies[i]	1.778619968
totalvDof_[cell]	1.778619968	vibrationalT_[cell]	14643.49535
totalelDof	0	electronicT_[cell]	0
degreesOfFreedomSpecies[i]	1.778637661
totalvDof_[cell]	1.778637661	vibrationalT_[cell]	14644.71429
totalelDof	0	electronicT_[cell]	0
degreesOfFreedomSpecies[i]	1.778757507
totalvDof_[cell]	1.778757507	vibrationalT_[cell]	14652.97598
totalelDof	0	electronicT_[cell]	0
degreesOfFreedomSpecies[i]	1.778606696
totalvDof_[cell]	1.778606696	vibrationalT_[cell]	14642.58115
totalelDof	0	electronicT_[cell]	0
degreesOfFreedomSpecies[i]	1.778603747
totalvDof_[cell]	1.778603747	vibrationalT_[cell]	14642.37799
totalelDof	0	electronicT_[cell]	0
degreesOfFreedomSpecies[i]	1.778968395
totalvDof_[cell]	1.778968395	vibrationalT_[cell]	14667.5354
totalelDof	0	electronicT_[cell]	0
degreesOfFreedomSpecies[i]	1.778676969
totalvDof_[cell]	1.778676969	vibrationalT_[cell]	14647.42305
totalelDof	0	electronicT_[cell]	0
degreesOfFreedomSpecies[i]	1.778572772
totalvDof_[cell]	1.778572772	vibrationalT_[cell]	14640.24484
totalelDof	0	electronicT_[cell]	0
degreesOfFreedomSpecies[i]	1.778797754
totalvDof_[cell]	1.778797754	vibrationalT_[cell]	14655.75244
totalelDof	0	electronicT_[cell]	0
degreesOfFreedomSpecies[i]	1.778738851
totalvDof_[cell]	1.778738851	vibrationalT_[cell]	14651.68932
totalelDof	0	electronicT_[cell]	0
degreesOfFreedomSpecies[i]	1.778823269
totalvDof_[cell]	1.778823269	vibrationalT_[cell]	14657.51311
totalelDof	0	electronicT_[cell]	0
degreesOfFreedomSpecies[i]	1.778959575
totalvDof_[cell]	1.778959575	vibrationalT_[cell]	14666.92594
totalelDof	0	electronicT_[cell]	0
degreesOfFreedomSpecies[i]	1.778955165
totalvDof_[cell]	1.778955165	vibrationalT_[cell]	14666.62121
totalelDof	0	electronicT_[cell]	0
degreesOfFreedomSpecies[i]	1.778837986
totalvDof_[cell]	1.778837986	vibrationalT_[cell]	14658.52889
totalelDof	0	electronicT_[cell]	0
degreesOfFreedomSpecies[i]	1.779092776
totalvDof_[cell]	1.779092776	vibrationalT_[cell]	14676.13556
totalelDof	0	electronicT_[cell]	0
degreesOfFreedomSpecies[i]	1.779134369
totalvDof_[cell]	1.779134369	vibrationalT_[cell]	14679.01356
totalelDof	0	electronicT_[cell]	0
degreesOfFreedomSpecies[i]	1.77904872
totalvDof_[cell]	1.77904872	vibrationalT_[cell]	14673.08827
totalelDof	0	electronicT_[cell]	0
Time = 2.5e-06

    Collisions                      = 24701

degreesOfFreedomSpecies[i]	1.7789287
totalvDof_[cell]	1.7789287	vibrationalT_[cell]	14664.79282
totalelDof	0	electronicT_[cell]	0
    Number of DSMC particles        = 99999
    Number of stuck particles       = 0
    Number of free particles        = 99999
    Average linear kinetic energy   = 3.053441916e-19
    Average rotational energy       = 2.041776208e-19
    Average vibrational energy      = 1.800893685e-19
    Average electronic energy       = 0
    Total energy                    = 6.896042848e-11

Stage 1.0  ExecutionTime = 464.58 s  ClockTime = 465 s  Iteration 500 (0.92 s)

degreesOfFreedomSpecies[i]	1.778749161
totalvDof_[cell]	1.778749161	vibrationalT_[cell]	14652.40037
totalelDof	0	electronicT_[cell]	0
degreesOfFreedomSpecies[i]	1.778621442
totalvDof_[cell]	1.778621442	vibrationalT_[cell]	14643.59693
totalelDof	0	electronicT_[cell]	0
degreesOfFreedomSpecies[i]	1.778570313
totalvDof_[cell]	1.778570313	vibrationalT_[cell]	14640.07554
totalelDof	0	electronicT_[cell]	0
degreesOfFreedomSpecies[i]	1.778791865
totalvDof_[cell]	1.778791865	vibrationalT_[cell]	14655.34613
totalelDof	0	electronicT_[cell]	0
degreesOfFreedomSpecies[i]	1.778804133
totalvDof_[cell]	1.778804133	vibrationalT_[cell]	14656.19261
totalelDof	0	electronicT_[cell]	0
degreesOfFreedomSpecies[i]	1.778979173
totalvDof_[cell]	1.778979173	vibrationalT_[cell]	14668.2803
totalelDof	0	electronicT_[cell]	0
degreesOfFreedomSpecies[i]	1.779245857
totalvDof_[cell]	1.779245857	vibrationalT_[cell]	14686.73334
totalelDof	0	electronicT_[cell]	0
degreesOfFreedomSpecies[i]	1.779229727
totalvDof_[cell]	1.779229727	vibrationalT_[cell]	14685.616
totalelDof	0	electronicT_[cell]	0
degreesOfFreedomSpecies[i]	1.779361626
totalvDof_[cell]	1.779361626	vibrationalT_[cell]	14694.7578
totalelDof	0	electronicT_[cell]	0
degreesOfFreedomSpecies[i]	1.779225817
totalvDof_[cell]	1.779225817	vibrationalT_[cell]	14685.34513
totalelDof	0	electronicT_[cell]	0
degreesOfFreedomSpecies[i]	1.779204795
totalvDof_[cell]	1.779204795	vibrationalT_[cell]	14683.88921
totalelDof	0	electronicT_[cell]	0
degreesOfFreedomSpecies[i]	1.779047251
totalvDof_[cell]	1.779047251	vibrationalT_[cell]	14672.98669
totalelDof	0	electronicT_[cell]	0
degreesOfFreedomSpecies[i]	1.778942423
totalvDof_[cell]	1.778942423	vibrationalT_[cell]	14665.74088
totalelDof	0	electronicT_[cell]	0
degreesOfFreedomSpecies[i]	1.779312793
totalvDof_[cell]	1.779312793	vibrationalT_[cell]	14691.37196
totalelDof	0	electronicT_[cell]	0
degreesOfFreedomSpecies[i]	1.779333794
totalvDof_[cell]	1.779333794	vibrationalT_[cell]	14692.82787
totalelDof	0	electronicT_[cell]	0
degreesOfFreedomSpecies[i]	1.779164697
totalvDof_[cell]	1.779164697	vibrationalT_[cell]	14681.1128
totalelDof	0	electronicT_[cell]	0
degreesOfFreedomSpecies[i]	1.779220439
totalvDof_[cell]	1.779220439	vibrationalT_[cell]	14684.97269
totalelDof	0	electronicT_[cell]	0
degreesOfFreedomSpecies[i]	1.77910599
totalvDof_[cell]	1.77910599	vibrationalT_[cell]	14677.04975
totalelDof	0	electronicT_[cell]	0
degreesOfFreedomSpecies[i]	1.77911333
totalvDof_[cell]	1.77911333	vibrationalT_[cell]	14677.55763
totalelDof	0	electronicT_[cell]	0
degreesOfFreedomSpecies[i]	1.779262961
totalvDof_[cell]	1.779262961	vibrationalT_[cell]	14687.91839
totalelDof	0	electronicT_[cell]	0
degreesOfFreedomSpecies[i]	1.779319631
totalvDof_[cell]	1.779319631	vibrationalT_[cell]	14691.84598
totalelDof	0	electronicT_[cell]	0
degreesOfFreedomSpecies[i]	1.779231682
totalvDof_[cell]	1.779231682	vibrationalT_[cell]	14685.75144
totalelDof	0	electronicT_[cell]	0
degreesOfFreedomSpecies[i]	1.779327445
totalvDof_[cell]	1.779327445	vibrationalT_[cell]	14692.38771
totalelDof	0	electronicT_[cell]	0
degreesOfFreedomSpecies[i]	1.77919355
totalvDof_[cell]	1.77919355	vibrationalT_[cell]	14683.11046
totalelDof	0	electronicT_[cell]	0
degreesOfFreedomSpecies[i]	1.779279085
totalvDof_[cell]	1.779279085	vibrationalT_[cell]	14689.03572
totalelDof	0	electronicT_[cell]	0
degreesOfFreedomSpecies[i]	1.779491416
totalvDof_[cell]	1.779491416	vibrationalT_[cell]	14703.76412
totalelDof	0	electronicT_[cell]	0
degreesOfFreedomSpecies[i]	1.779232171
totalvDof_[cell]	1.779232171	vibrationalT_[cell]	14685.78529
totalelDof	0	electronicT_[cell]	0
degreesOfFreedomSpecies[i]	1.779169098
totalvDof_[cell]	1.779169098	vibrationalT_[cell]	14681.41753
totalelDof	0	electronicT_[cell]	0
degreesOfFreedomSpecies[i]	1.779332329
totalvDof_[cell]	1.779332329	vibrationalT_[cell]	14692.7263
totalelDof	0	electronicT_[cell]	0
degreesOfFreedomSpecies[i]	1.779374807
totalvDof_[cell]	1.779374807	vibrationalT_[cell]	14695.67198
totalelDof	0	electronicT_[cell]	0
degreesOfFreedomSpecies[i]	1.779450934
totalvDof_[cell]	1.779450934	vibrationalT_[cell]	14700.95388
totalelDof	0	electronicT_[cell]	0
degreesOfFreedomSpecies[i]	1.779150023
totalvDof_[cell]	1.779150023	vibrationalT_[cell]	14680.09704
totalelDof	0	electronicT_[cell]	0
degreesOfFreedomSpecies[i]	1.779305466
totalvDof_[cell]	1.779305466	vibrationalT_[cell]	14690.86408
totalelDof	0	electronicT_[cell]	0
degreesOfFreedomSpecies[i]	1.779352837
totalvDof_[cell]	1.779352837	vibrationalT_[cell]	14694.14835
totalelDof	0	electronicT_[cell]	0
degreesOfFreedomSpecies[i]	1.779390915
totalvDof_[cell]	1.779390915	vibrationalT_[cell]	14696.78931
totalelDof	0	electronicT_[cell]	0
degreesOfFreedomSpecies[i]	1.779633716
totalvDof_[cell]	1.779633716	vibrationalT_[cell]	14713.6507
totalelDof	0	electronicT_[cell]	0
degreesOfFreedomSpecies[i]	1.779591825
totalvDof_[cell]	1.779591825	vibrationalT_[cell]	14710.73891
totalelDof	0	electronicT_[cell]	0
degreesOfFreedomSpecies[i]	1.779866262
totalvDof_[cell]	1.779866262	vibrationalT_[cell]	14729.83477
totalelDof	0	electronicT_[cell]	0
degreesOfFreedomSpecies[i]	1.779809873
totalvDof_[cell]	1.779809873	vibrationalT_[cell]	14725.90727
totalelDof	0	electronicT_[cell]	0
degreesOfFreedomSpecies[i]	1.779904648
totalvDof_[cell]	1.779904648	vibrationalT_[cell]	14732.50953
totalelDof	0	electronicT_[cell]	0
degreesOfFreedomSpecies[i]	1.779758807
totalvDof_[cell]	1.779758807	vibrationalT_[cell]	14722.3522
totalelDof	0	electronicT_[cell]	0
degreesOfFreedomSpecies[i]	1.779675591
totalvDof_[cell]	1.779675591	vibrationalT_[cell]	14716.56249
totalelDof	0	electronicT_[cell]	0
degreesOfFreedomSpecies[i]	1.779748591
totalvDof_[cell]	1.779748591	vibrationalT_[cell]	14721.64118
totalelDof	0	electronicT_[cell]	0
degreesOfFreedomSpecies[i]	1.779588901
totalvDof_[cell]	1.779588901	vibrationalT_[cell]	14710.53576
totalelDof	0	electronicT_[cell]	0
degreesOfFreedomSpecies[i]	1.779602055
totalvDof_[cell]	1.779602055	vibrationalT_[cell]	14711.44993
totalelDof	0	electronicT_[cell]	0
degreesOfFreedomSpecies[i]	1.779519695
totalvDof_[cell]	1.779519695	vibrationalT_[cell]	14705.7279
totalelDof	0	electronicT_[cell]	0
degreesOfFreedomSpecies[i]	1.779411901
totalvDof_[cell]	1.779411901	vibrationalT_[cell]	14698.24522
totalelDof	0	electronicT_[cell]	0
degreesOfFreedomSpecies[i]	1.779528958
totalvDof_[cell]	1.779528958	vibrationalT_[cell]	14706.3712
totalelDof	0	electronicT_[cell]	0
degreesOfFreedomSpecies[i]	1.779241458
totalvDof_[cell]	1.779241458	vibrationalT_[cell]	14686.42861
totalelDof	0	electronicT_[cell]	0
degreesOfFreedomSpecies[i]	1.77909816
totalvDof_[cell]	1.77909816	vibrationalT_[cell]	14676.50801
totalelDof	0	electronicT_[cell]	0
degreesOfFreedomSpecies[i]	1.779092776
totalvDof_[cell]	1.779092776	vibrationalT_[cell]	14676.13556
totalelDof	0	electronicT_[cell]	0
degreesOfFreedomSpecies[i]	1.778948304
totalvDof_[cell]	1.778948304	vibrationalT_[cell]	14666.14718
totalelDof	0	electronicT_[cell]	0
degreesOfFreedomSpecies[i]	1.778913014
totalvDof_[cell]	1.778913014	vibrationalT_[cell]	14663.70933
totalelDof	0	electronicT_[cell]	0
degreesOfFreedomSpecies[i]	1.779099138
totalvDof_[cell]	1.779099138	vibrationalT_[cell]	14676.57573
totalelDof	0	electronicT_[cell]	0
degreesOfFreedomSpecies[i]	1.779276154
totalvDof_[cell]	1.779276154	vibrationalT_[cell]	14688.83257
totalelDof	0	electronicT_[cell]	0
degreesOfFreedomSpecies[i]	1.779301558
totalvDof_[cell]	1.779301558	vibrationalT_[cell]	14690.59321
totalelDof	0	electronicT_[cell]	0
degreesOfFreedomSpecies[i]	1.779234126
totalvDof_[cell]	1.779234126	vibrationalT_[cell]	14685.92073
totalelDof	0	electronicT_[cell]	0
degreesOfFreedomSpecies[i]	1.779413853
totalvDof_[cell]	1.779413853	vibrationalT_[cell]	14698.38065
totalelDof	0	electronicT_[cell]	0
degreesOfFreedomSpecies[i]	1.779491416
totalvDof_[cell]	1.779491416	vibrationalT_[cell]	14703.76412
totalelDof	0	electronicT_[cell]	0
degreesOfFreedomSpecies[i]	1.779528958
totalvDof_[cell]	1.779528958	vibrationalT_[cell]	14706.3712
totalelDof	0	electronicT_[cell]	0
degreesOfFreedomSpecies[i]	1.779504094
totalvDof_[cell]	1.779504094	vibrationalT_[cell]	14704.64444
totalelDof	0	electronicT_[cell]	0
degreesOfFreedomSpecies[i]	1.779409461
totalvDof_[cell]	1.779409461	vibrationalT_[cell]	14698.07593
totalelDof	0	electronicT_[cell]	0
degreesOfFreedomSpecies[i]	1.779579157
totalvDof_[cell]	1.779579157	vibrationalT_[cell]	14709.85859
[...]
totalvDof_[cell]	1.779636638	vibrationalT_[cell]	14713.85385
totalelDof	0	electronicT_[cell]	0
degreesOfFreedomSpecies[i]	1.779350884
totalvDof_[cell]	1.779350884	vibrationalT_[cell]	14694.01292
totalelDof	0	electronicT_[cell]	0
degreesOfFreedomSpecies[i]	1.77944947
totalvDof_[cell]	1.77944947	vibrationalT_[cell]	14700.85231
totalelDof	0	electronicT_[cell]	0
degreesOfFreedomSpecies[i]	1.779615208
totalvDof_[cell]	1.779615208	vibrationalT_[cell]	14712.36409
totalelDof	0	electronicT_[cell]	0
degreesOfFreedomSpecies[i]	1.779540169
totalvDof_[cell]	1.779540169	vibrationalT_[cell]	14707.14994
totalelDof	0	electronicT_[cell]	0
degreesOfFreedomSpecies[i]	1.779749564
totalvDof_[cell]	1.779749564	vibrationalT_[cell]	14721.7089
totalelDof	0	electronicT_[cell]	0
degreesOfFreedomSpecies[i]	1.779648325
totalvDof_[cell]	1.779648325	vibrationalT_[cell]	14714.66644
totalelDof	0	electronicT_[cell]	0
degreesOfFreedomSpecies[i]	1.780003224
totalvDof_[cell]	1.780003224	vibrationalT_[cell]	14739.38262
totalelDof	0	electronicT_[cell]	0
degreesOfFreedomSpecies[i]	1.780035254
totalvDof_[cell]	1.780035254	vibrationalT_[cell]	14741.61722
totalelDof	0	electronicT_[cell]	0
degreesOfFreedomSpecies[i]	1.779942535
totalvDof_[cell]	1.779942535	vibrationalT_[cell]	14735.15043
totalelDof	0	electronicT_[cell]	0
degreesOfFreedomSpecies[i]	1.780218035
totalvDof_[cell]	1.780218035	vibrationalT_[cell]	14754.38144
totalelDof	0	electronicT_[cell]	0
degreesOfFreedomSpecies[i]	1.779920193
totalvDof_[cell]	1.779920193	vibrationalT_[cell]	14733.59297
totalelDof	0	electronicT_[cell]	0
degreesOfFreedomSpecies[i]	1.780025549
totalvDof_[cell]	1.780025549	vibrationalT_[cell]	14740.94007
totalelDof	0	electronicT_[cell]	0
degreesOfFreedomSpecies[i]	1.779771941
totalvDof_[cell]	1.779771941	vibrationalT_[cell]	14723.26636
totalelDof	0	electronicT_[cell]	0
degreesOfFreedomSpecies[i]	1.779936221
totalvDof_[cell]	1.779936221	vibrationalT_[cell]	14734.71028
totalelDof	0	electronicT_[cell]	0
degreesOfFreedomSpecies[i]	1.77999837
totalvDof_[cell]	1.77999837	vibrationalT_[cell]	14739.04405
totalelDof	0	electronicT_[cell]	0
degreesOfFreedomSpecies[i]	1.77998672
totalvDof_[cell]	1.77998672	vibrationalT_[cell]	14738.23147
totalelDof	0	electronicT_[cell]	0
degreesOfFreedomSpecies[i]	1.779921164
totalvDof_[cell]	1.779921164	vibrationalT_[cell]	14733.66069
totalelDof	0	electronicT_[cell]	0
degreesOfFreedomSpecies[i]	1.780084252
totalvDof_[cell]	1.780084252	vibrationalT_[cell]	14745.03682
totalelDof	0	electronicT_[cell]	0
degreesOfFreedomSpecies[i]	1.780227723
totalvDof_[cell]	1.780227723	vibrationalT_[cell]	14755.05859
totalelDof	0	electronicT_[cell]	0
degreesOfFreedomSpecies[i]	1.780328429
totalvDof_[cell]	1.780328429	vibrationalT_[cell]	14762.10088
totalelDof	0	electronicT_[cell]	0
degreesOfFreedomSpecies[i]	1.780529562
totalvDof_[cell]	1.780529562	vibrationalT_[cell]	14776.18536
totalelDof	0	electronicT_[cell]	0
degreesOfFreedomSpecies[i]	1.780218519
totalvDof_[cell]	1.780218519	vibrationalT_[cell]	14754.4153
totalelDof	0	electronicT_[cell]	0
degreesOfFreedomSpecies[i]	1.780230629
totalvDof_[cell]	1.780230629	vibrationalT_[cell]	14755.26173
totalelDof	0	electronicT_[cell]	0
degreesOfFreedomSpecies[i]	1.780149709
totalvDof_[cell]	1.780149709	vibrationalT_[cell]	14749.60757
totalelDof	0	electronicT_[cell]	0
degreesOfFreedomSpecies[i]	1.780145347
totalvDof_[cell]	1.780145347	vibrationalT_[cell]	14749.30285
totalelDof	0	electronicT_[cell]	0
degreesOfFreedomSpecies[i]	1.780205439
totalvDof_[cell]	1.780205439	vibrationalT_[cell]	14753.50116
totalelDof	0	electronicT_[cell]	0
degreesOfFreedomSpecies[i]	1.780011475
totalvDof_[cell]	1.780011475	vibrationalT_[cell]	14739.9582
totalelDof	0	electronicT_[cell]	0
degreesOfFreedomSpecies[i]	1.779835155
totalvDof_[cell]	1.779835155	vibrationalT_[cell]	14727.66788
totalelDof	0	electronicT_[cell]	0
degreesOfFreedomSpecies[i]	1.77982689
totalvDof_[cell]	1.77982689	vibrationalT_[cell]	14727.09229
totalelDof	0	electronicT_[cell]	0
degreesOfFreedomSpecies[i]	1.779983807
totalvDof_[cell]	1.779983807	vibrationalT_[cell]	14738.02832
totalelDof	0	electronicT_[cell]	0
degreesOfFreedomSpecies[i]	1.78010947
totalvDof_[cell]	1.78010947	vibrationalT_[cell]	14746.79741
totalelDof	0	electronicT_[cell]	0
degreesOfFreedomSpecies[i]	1.780123046
totalvDof_[cell]	1.780123046	vibrationalT_[cell]	14747.74541
totalelDof	0	electronicT_[cell]	0
degreesOfFreedomSpecies[i]	1.780213191
totalvDof_[cell]	1.780213191	vibrationalT_[cell]	14754.04287
totalelDof	0	electronicT_[cell]	0
degreesOfFreedomSpecies[i]	1.780200594
totalvDof_[cell]	1.780200594	vibrationalT_[cell]	14753.16258
totalelDof	0	electronicT_[cell]	0
degreesOfFreedomSpecies[i]	1.780346333
totalvDof_[cell]	1.780346333	vibrationalT_[cell]	14763.35359
totalelDof	0	electronicT_[cell]	0
degreesOfFreedomSpecies[i]	1.780074066
totalvDof_[cell]	1.780074066	vibrationalT_[cell]	14744.32582
totalelDof	0	electronicT_[cell]	0
degreesOfFreedomSpecies[i]	1.780065334
totalvDof_[cell]	1.780065334	vibrationalT_[cell]	14743.71638
totalelDof	0	electronicT_[cell]	0
degreesOfFreedomSpecies[i]	1.780008563
totalvDof_[cell]	1.780008563	vibrationalT_[cell]	14739.75506
totalelDof	0	electronicT_[cell]	0
degreesOfFreedomSpecies[i]	1.77975151
totalvDof_[cell]	1.77975151	vibrationalT_[cell]	14721.84433
totalelDof	0	electronicT_[cell]	0
Time = 3.5e-06

    Collisions                      = 24867

degreesOfFreedomSpecies[i]	1.77971599
totalvDof_[cell]	1.77971599	vibrationalT_[cell]	14719.3727
totalelDof	0	electronicT_[cell]	0
    Number of DSMC particles        = 99999
    Number of stuck particles       = 0
    Number of free particles        = 99999
    Average linear kinetic energy   = 3.057966528e-19
    Average rotational energy       = 2.029748997e-19
    Average vibrational energy      = 1.808396284e-19
    Average electronic energy       = 0
    Total energy                    = 6.896042848e-11

Stage 1.0  ExecutionTime = 648.09 s  ClockTime = 648 s  Iteration 700 (0.92 s)

degreesOfFreedomSpecies[i]	1.779730102
totalvDof_[cell]	1.779730102	vibrationalT_[cell]	14720.35458
totalelDof	0	electronicT_[cell]	0
degreesOfFreedomSpecies[i]	1.779820084
totalvDof_[cell]	1.779820084	vibrationalT_[cell]	14726.61828
totalelDof	0	electronicT_[cell]	0
degreesOfFreedomSpecies[i]	1.779764644
totalvDof_[cell]	1.779764644	vibrationalT_[cell]	14722.75849
totalelDof	0	electronicT_[cell]	0
degreesOfFreedomSpecies[i]	1.779579644
totalvDof_[cell]	1.779579644	vibrationalT_[cell]	14709.89245
totalelDof	0	electronicT_[cell]	0
degreesOfFreedomSpecies[i]	1.779655629
totalvDof_[cell]	1.779655629	vibrationalT_[cell]	14715.17431
totalelDof	0	electronicT_[cell]	0
degreesOfFreedomSpecies[i]	1.779818139
totalvDof_[cell]	1.779818139	vibrationalT_[cell]	14726.48285
totalelDof	0	electronicT_[cell]	0
degreesOfFreedomSpecies[i]	1.779882784
totalvDof_[cell]	1.779882784	vibrationalT_[cell]	14730.98593
totalelDof	0	electronicT_[cell]	0
degreesOfFreedomSpecies[i]	1.779778264
totalvDof_[cell]	1.779778264	vibrationalT_[cell]	14723.70651
totalelDof	0	electronicT_[cell]	0
degreesOfFreedomSpecies[i]	1.779944963
totalvDof_[cell]	1.779944963	vibrationalT_[cell]	14735.31971
totalelDof	0	electronicT_[cell]	0
degreesOfFreedomSpecies[i]	1.780259688
totalvDof_[cell]	1.780259688	vibrationalT_[cell]	14757.29316
totalelDof	0	electronicT_[cell]	0
degreesOfFreedomSpecies[i]	1.780365202
totalvDof_[cell]	1.780365202	vibrationalT_[cell]	14764.67401
totalelDof	0	electronicT_[cell]	0
degreesOfFreedomSpecies[i]	1.780400028
totalvDof_[cell]	1.780400028	vibrationalT_[cell]	14767.11172
totalelDof	0	electronicT_[cell]	0
degreesOfFreedomSpecies[i]	1.780286802
totalvDof_[cell]	1.780286802	vibrationalT_[cell]	14759.18916
totalelDof	0	electronicT_[cell]	0
degreesOfFreedomSpecies[i]	1.780393741
totalvDof_[cell]	1.780393741	vibrationalT_[cell]	14766.67158
totalelDof	0	electronicT_[cell]	0
degreesOfFreedomSpecies[i]	1.780513137
totalvDof_[cell]	1.780513137	vibrationalT_[cell]	14775.03423
totalelDof	0	electronicT_[cell]	0
degreesOfFreedomSpecies[i]	1.780300841
totalvDof_[cell]	1.780300841	vibrationalT_[cell]	14760.17102
totalelDof	0	electronicT_[cell]	0
degreesOfFreedomSpecies[i]	1.780243222
totalvDof_[cell]	1.780243222	vibrationalT_[cell]	14756.14202
totalelDof	0	electronicT_[cell]	0
degreesOfFreedomSpecies[i]	1.780174912
totalvDof_[cell]	1.780174912	vibrationalT_[cell]	14751.36815
totalelDof	0	electronicT_[cell]	0
degreesOfFreedomSpecies[i]	1.78007261
totalvDof_[cell]	1.78007261	vibrationalT_[cell]	14744.22424
totalelDof	0	electronicT_[cell]	0
degreesOfFreedomSpecies[i]	1.78007067
totalvDof_[cell]	1.78007067	vibrationalT_[cell]	14744.08881
totalelDof	0	electronicT_[cell]	0
degreesOfFreedomSpecies[i]	1.77995079
totalvDof_[cell]	1.77995079	vibrationalT_[cell]	14735.726
totalelDof	0	electronicT_[cell]	0
degreesOfFreedomSpecies[i]	1.77990902
totalvDof_[cell]	1.77990902	vibrationalT_[cell]	14732.81425
totalelDof	0	electronicT_[cell]	0
degreesOfFreedomSpecies[i]	1.779762212
totalvDof_[cell]	1.779762212	vibrationalT_[cell]	14722.5892
totalelDof	0	electronicT_[cell]	0
degreesOfFreedomSpecies[i]	1.779777777
totalvDof_[cell]	1.779777777	vibrationalT_[cell]	14723.67265
totalelDof	0	electronicT_[cell]	0
degreesOfFreedomSpecies[i]	1.779803552
totalvDof_[cell]	1.779803552	vibrationalT_[cell]	14725.46712
totalelDof	0	electronicT_[cell]	0
degreesOfFreedomSpecies[i]	1.780047384
totalvDof_[cell]	1.780047384	vibrationalT_[cell]	14742.46366
totalelDof	0	electronicT_[cell]	0
degreesOfFreedomSpecies[i]	1.779981379
totalvDof_[cell]	1.779981379	vibrationalT_[cell]	14737.85903
totalelDof	0	electronicT_[cell]	0
degreesOfFreedomSpecies[i]	1.779626897
totalvDof_[cell]	1.779626897	vibrationalT_[cell]	14713.17669
totalelDof	0	electronicT_[cell]	0
degreesOfFreedomSpecies[i]	1.779507994
totalvDof_[cell]	1.779507994	vibrationalT_[cell]	14704.9153
totalelDof	0	electronicT_[cell]	0
degreesOfFreedomSpecies[i]	1.779727183
totalvDof_[cell]	1.779727183	vibrationalT_[cell]	14720.15143
totalelDof	0	electronicT_[cell]	0
degreesOfFreedomSpecies[i]	1.779751996
totalvDof_[cell]	1.779751996	vibrationalT_[cell]	14721.87819
totalelDof	0	electronicT_[cell]	0
degreesOfFreedomSpecies[i]	1.779733508
totalvDof_[cell]	1.779733508	vibrationalT_[cell]	14720.59159
totalelDof	0	electronicT_[cell]	0
degreesOfFreedomSpecies[i]	1.77960985
totalvDof_[cell]	1.77960985	vibrationalT_[cell]	14711.99166
totalelDof	0	electronicT_[cell]	0
degreesOfFreedomSpecies[i]	1.779331352
totalvDof_[cell]	1.779331352	vibrationalT_[cell]	14692.65858
totalelDof	0	electronicT_[cell]	0
degreesOfFreedomSpecies[i]	1.779286903
totalvDof_[cell]	1.779286903	vibrationalT_[cell]	14689.57745
totalelDof	0	electronicT_[cell]	0
degreesOfFreedomSpecies[i]	1.779037459
totalvDof_[cell]	1.779037459	vibrationalT_[cell]	14672.30951
totalelDof	0	electronicT_[cell]	0
degreesOfFreedomSpecies[i]	1.77938701
totalvDof_[cell]	1.77938701	vibrationalT_[cell]	14696.51844
totalelDof	0	electronicT_[cell]	0
degreesOfFreedomSpecies[i]	1.779246345
totalvDof_[cell]	1.779246345	vibrationalT_[cell]	14686.76719
totalelDof	0	electronicT_[cell]	0
degreesOfFreedomSpecies[i]	1.779398724
totalvDof_[cell]	1.779398724	vibrationalT_[cell]	14697.33104
totalelDof	0	electronicT_[cell]	0
degreesOfFreedomSpecies[i]	1.779227772
totalvDof_[cell]	1.779227772	vibrationalT_[cell]	14685.48057
totalelDof	0	electronicT_[cell]	0
degreesOfFreedomSpecies[i]	1.779302047
totalvDof_[cell]	1.779302047	vibrationalT_[cell]	14690.62707
totalelDof	0	electronicT_[cell]	0
degreesOfFreedomSpecies[i]	1.779199906
totalvDof_[cell]	1.779199906	vibrationalT_[cell]	14683.55062
totalelDof	0	electronicT_[cell]	0
degreesOfFreedomSpecies[i]	1.779496292
totalvDof_[cell]	1.779496292	vibrationalT_[cell]	14704.1027
totalelDof	0	electronicT_[cell]	0
degreesOfFreedomSpecies[i]	1.779602055
totalvDof_[cell]	1.779602055	vibrationalT_[cell]	14711.44993
totalelDof	0	electronicT_[cell]	0
degreesOfFreedomSpecies[i]	1.779623001
totalvDof_[cell]	1.779623001	vibrationalT_[cell]	14712.90582
totalelDof	0	electronicT_[cell]	0
degreesOfFreedomSpecies[i]	1.779545531
totalvDof_[cell]	1.779545531	vibrationalT_[cell]	14707.52238
totalelDof	0	electronicT_[cell]	0
degreesOfFreedomSpecies[i]	1.779747131
totalvDof_[cell]	1.779747131	vibrationalT_[cell]	14721.53961
totalelDof	0	electronicT_[cell]	0
degreesOfFreedomSpecies[i]	1.779745185
totalvDof_[cell]	1.779745185	vibrationalT_[cell]	14721.40418
totalelDof	0	electronicT_[cell]	0
degreesOfFreedomSpecies[i]	1.779757348
totalvDof_[cell]	1.779757348	vibrationalT_[cell]	14722.25062
totalelDof	0	electronicT_[cell]	0
degreesOfFreedomSpecies[i]	1.779825432
totalvDof_[cell]	1.779825432	vibrationalT_[cell]	14726.99072
totalelDof	0	electronicT_[cell]	0
degreesOfFreedomSpecies[i]	1.779775345
totalvDof_[cell]	1.779775345	vibrationalT_[cell]	14723.50336
totalelDof	0	electronicT_[cell]	0
degreesOfFreedomSpecies[i]	1.77968192
totalvDof_[cell]	1.77968192	vibrationalT_[cell]	14717.00264
totalelDof	0	electronicT_[cell]	0
degreesOfFreedomSpecies[i]	1.77953822
totalvDof_[cell]	1.77953822	vibrationalT_[cell]	14707.01451
totalelDof	0	electronicT_[cell]	0
degreesOfFreedomSpecies[i]	1.779464592
totalvDof_[cell]	1.779464592	vibrationalT_[cell]	14701.90192
totalelDof	0	electronicT_[cell]	0
degreesOfFreedomSpecies[i]	1.779304489
totalvDof_[cell]	1.779304489	vibrationalT_[cell]	14690.79636
totalelDof	0	electronicT_[cell]	0
degreesOfFreedomSpecies[i]	1.779415317
totalvDof_[cell]	1.779415317	vibrationalT_[cell]	14698.48223
totalelDof	0	electronicT_[cell]	0
degreesOfFreedomSpecies[i]	1.779504094
totalvDof_[cell]	1.779504094	vibrationalT_[cell]	14704.64444
totalelDof	0	electronicT_[cell]	0
degreesOfFreedomSpecies[i]	1.779822028
totalvDof_[cell]	1.779822028	vibrationalT_[cell]	14726.75372
totalelDof	0	electronicT_[cell]	0
degreesOfFreedomSpecies[i]	1.779659038
totalvDof_[cell]	1.779659038	vibrationalT_[cell]	14715.41132
totalelDof	0	electronicT_[cell]	0
degreesOfFreedomSpecies[i]	1.779824459
totalvDof_[cell]	1.779824459	vibrationalT_[cell]	14726.923
totalelDof	0	electronicT_[cell]	0
degreesOfFreedomSpecies[i]	1.779842932
totalvDof_[cell]	1.779842932	vibrationalT_[cell]	14728.2096
totalelDof	0	electronicT_[cell]	0
degreesOfFreedomSpecies[i]	1.779624949
totalvDof_[cell]	1.779624949	vibrationalT_[cell]	14713.04126
totalelDof	0	electronicT_[cell]	0
degreesOfFreedomSpecies[i]	1.779967785
totalvDof_[cell]	1.779967785	vibrationalT_[cell]	14736.91102
totalelDof	0	electronicT_[cell]	0
degreesOfFreedomSpecies[i]	1.780063394
totalvDof_[cell]	1.780063394	vibrationalT_[cell]	14743.58095
totalelDof	0	electronicT_[cell]	0
degreesOfFreedomSpecies[i]	1.780046414
totalvDof_[cell]	1.780046414	vibrationalT_[cell]	14742.39594
totalelDof	0	electronicT_[cell]	0
degreesOfFreedomSpecies[i]	1.780309553
totalvDof_[cell]	1.780309553	vibrationalT_[cell]	14760.78045
totalelDof	0	electronicT_[cell]	0
degreesOfFreedomSpecies[i]	1.780036709
totalvDof_[cell]	1.780036709	vibrationalT_[cell]	14741.71879
totalelDof	0	electronicT_[cell]	0
degreesOfFreedomSpecies[i]	1.780013901
totalvDof_[cell]	1.780013901	vibrationalT_[cell]	14740.12749
totalelDof	0	electronicT_[cell]	0
degreesOfFreedomSpecies[i]	1.780036709
totalvDof_[cell]	1.780036709	vibrationalT_[cell]	14741.71879
totalelDof	0	electronicT_[cell]	0
degreesOfFreedomSpecies[i]	1.780003709
totalvDof_[cell]	1.780003709	vibrationalT_[cell]	14739.41648
totalelDof	0	electronicT_[cell]	0
degreesOfFreedomSpecies[i]	1.780144862
totalvDof_[cell]	1.780144862	vibrationalT_[cell]	14749.26899
totalelDof	0	electronicT_[cell]	0
degreesOfFreedomSpecies[i]	1.780059513
totalvDof_[cell]	1.780059513	vibrationalT_[cell]	14743.31009
totalelDof	0	electronicT_[cell]	0
degreesOfFreedomSpecies[i]	1.779765131
totalvDof_[cell]	1.779765131	vibrationalT_[cell]	14722.79235
totalelDof	0	electronicT_[cell]	0
degreesOfFreedomSpecies[i]	1.779570386
totalvDof_[cell]	1.779570386	vibrationalT_[cell]	14709.24915
totalelDof	0	electronicT_[cell]	0
degreesOfFreedomSpecies[i]	1.779807442
totalvDof_[cell]	1.779807442	vibrationalT_[cell]	14725.73798
totalelDof	0	electronicT_[cell]	0
degreesOfFreedomSpecies[i]	1.779690195
totalvDof_[cell]	1.779690195	vibrationalT_[cell]	14717.57823
totalelDof	0	electronicT_[cell]	0
degreesOfFreedomSpecies[i]	1.779733995
totalvDof_[cell]	1.779733995	vibrationalT_[cell]	14720.62544
totalelDof	0	electronicT_[cell]	0
degreesOfFreedomSpecies[i]	1.779698469
totalvDof_[cell]	1.779698469	vibrationalT_[cell]	14718.15382
totalelDof	0	electronicT_[cell]	0
degreesOfFreedomSpecies[i]	1.779660498
totalvDof_[cell]	1.779660498	vibrationalT_[cell]	14715.51289
totalelDof	0	electronicT_[cell]	0
degreesOfFreedomSpecies[i]	1.779687274
totalvDof_[cell]	1.779687274	vibrationalT_[cell]	14717.37508
totalelDof	0	electronicT_[cell]	0
degreesOfFreedomSpecies[i]	1.779484101
totalvDof_[cell]	1.779484101	vibrationalT_[cell]	14703.25625
totalelDof	0	electronicT_[cell]	0
degreesOfFreedomSpecies[i]	1.779320608
totalvDof_[cell]	1.779320608	vibrationalT_[cell]	14691.91369
totalelDof	0	electronicT_[cell]	0
degreesOfFreedomSpecies[i]	1.7793997
totalvDof_[cell]	1.7793997	vibrationalT_[cell]	14697.39876
totalelDof	0	electronicT_[cell]	0
degreesOfFreedomSpecies[i]	1.779419221
totalvDof_[cell]	1.779419221	vibrationalT_[cell]	14698.75309
totalelDof	0	electronicT_[cell]	0
degreesOfFreedomSpecies[i]	1.779476298
totalvDof_[cell]	1.779476298	vibrationalT_[cell]	14702.71452
totalelDof	0	electronicT_[cell]	0
degreesOfFreedomSpecies[i]	1.779623975
totalvDof_[cell]	1.779623975	vibrationalT_[cell]	14712.97354
totalelDof	0	electronicT_[cell]	0
degreesOfFreedomSpecies[i]	1.779487514
totalvDof_[cell]	1.779487514	vibrationalT_[cell]	14703.49326
totalelDof	0	electronicT_[cell]	0
degreesOfFreedomSpecies[i]	1.779447031
totalvDof_[cell]	1.779447031	vibrationalT_[cell]	14700.68302
totalelDof	0	electronicT_[cell]	0
degreesOfFreedomSpecies[i]	1.779422148
totalvDof_[cell]	1.779422148	vibrationalT_[cell]	14698.95624
totalelDof	0	electronicT_[cell]	0
degreesOfFreedomSpecies[i]	1.779210173
totalvDof_[cell]	1.779210173	vibrationalT_[cell]	14684.26166
totalelDof	0	electronicT_[cell]	0
degreesOfFreedomSpecies[i]	1.779378224
totalvDof_[cell]	1.779378224	vibrationalT_[cell]	14695.90899
totalelDof	0	electronicT_[cell]	0
degreesOfFreedomSpecies[i]	1.779500193
totalvDof_[cell]	1.779500193	vibrationalT_[cell]	14704.37357
totalelDof	0	electronicT_[cell]	0
degreesOfFreedomSpecies[i]	1.779398724
totalvDof_[cell]	1.779398724	vibrationalT_[cell]	14697.33104
totalelDof	0	electronicT_[cell]	0
degreesOfFreedomSpecies[i]	1.779467519
totalvDof_[cell]	1.779467519	vibrationalT_[cell]	14702.10507
totalelDof	0	electronicT_[cell]	0
degreesOfFreedomSpecies[i]	1.779501168
totalvDof_[cell]	1.779501168	vibrationalT_[cell]	14704.44129
totalelDof	0	electronicT_[cell]	0
degreesOfFreedomSpecies[i]	1.779431419
totalvDof_[cell]	1.779431419	vibrationalT_[cell]	14699.59955
totalelDof	0	electronicT_[cell]	0
degreesOfFreedomSpecies[i]	1.779458251
totalvDof_[cell]	1.779458251	vibrationalT_[cell]	14701.46176
totalelDof	0	electronicT_[cell]	0
degreesOfFreedomSpecies[i]	1.779456787
totalvDof_[cell]	1.779456787	vibrationalT_[cell]	14701.36018
totalelDof	0	electronicT_[cell]	0
degreesOfFreedomSpecies[i]	1.779346978
totalvDof_[cell]	1.779346978	vibrationalT_[cell]	14693.74205
totalelDof	0	electronicT_[cell]	0
Time = 4e-06

    Collisions                      = 24705

degreesOfFreedomSpecies[i]	1.77918377
totalvDof_[cell]	1.77918377	vibrationalT_[cell]	14682.43329
totalelDof	0	electronicT_[cell]	0
    Number of DSMC particles        = 99999
    Number of stuck particles       = 0
    Number of free particles        = 99999
    Average linear kinetic energy   = 3.060477738e-19
    Average rotational energy       = 2.032315539e-19
    Average vibrational energy      = 1.803318533e-19
    Average electronic energy       = 0
    Total energy                    = 6.896042848e-11

Stage 1.0  ExecutionTime = 740.11 s  ClockTime = 742 s  Iteration 800 (0.92 s)

End stage 1

Total Iterations = 800
End main

double free or corruption (fasttop)
Aborted (core dumped)
